
     RDKit          3D

 52 53  0  0  0  0  0  0  0  0999 V2000
   15.6420  -20.3360   18.4020 O   0  0  0  0  0  0  0  0  0  0  0  0
   16.5790  -19.3450   17.8770 S   0  0  2  0  0  0  0  0  0  0  0  0
   16.2030  -18.9270   16.5200 O   0  0  0  0  0  0  0  0  0  0  0  0
   17.9640  -19.8790   17.9560 N   0  0  0  0  0  0  0  0  0  0  0  0
   18.0350  -21.0780   18.3630 O   0  0  0  0  0  0  0  0  0  0  0  0
   18.3210  -21.3320   19.7450 C   0  0  1  0  0  0  0  0  0  0  0  0
   17.3600  -22.3860   20.3190 C   0  0  0  0  0  0  0  0  0  0  0  0
   19.7600  -21.8150   19.9280 C   0  0  0  0  0  0  0  0  0  0  0  0
   18.8060  -19.5610   16.9080 C   0  0  2  0  0  0  0  0  0  0  0  0
   19.8660  -20.6600   16.5750 C   0  0  1  0  0  0  0  0  0  0  0  0
   19.3240  -21.7790   15.6710 C   0  0  0  0  0  0  0  0  0  0  0  0
   21.0650  -20.0570   15.8440 C   0  0  0  0  0  0  0  0  0  0  0  0
   19.6060  -18.3340   17.3940 C   0  0  0  0  0  0  0  0  0  0  0  0
   20.2800  -18.4110   18.3690 O   0  0  0  0  0  0  0  0  0  0  0  0
   19.5620  -17.0850   16.6670 N   0  0  0  0  0  0  0  0  0  0  0  0
   20.2050  -16.1780   17.0550 O   0  0  0  0  0  0  0  0  0  0  0  0
   16.6290  -17.8530   18.9560 C   0  0  0  0  0  0  0  0  0  0  0  0
   16.7560  -16.5550   18.3680 C   0  0  0  0  0  0  0  0  0  0  0  0
   16.8190  -15.3860   19.2490 C   0  0  0  0  0  0  0  0  0  0  0  0
   16.7530  -15.5510   20.6720 C   0  0  0  0  0  0  0  0  0  0  0  0
   16.6410  -16.8460   21.2600 C   0  0  0  0  0  0  0  0  0  0  0  0
   16.5740  -18.0150   20.3820 C   0  0  0  0  0  0  0  0  0  0  0  0
   16.8240  -14.2910   21.5710 C   0  0  0  0  0  0  0  0  0  0  0  0
   17.5180  -14.3450   22.9420 C   0  0  0  0  0  0  0  0  0  0  0  0
   17.5470  -13.2230   23.7470 C   0  0  0  0  0  0  0  0  0  0  0  0
   16.8450  -11.9300   23.2740 C   0  0  0  0  0  0  0  0  0  0  0  0
   16.2070  -11.8950   22.0860 C   0  0  0  0  0  0  0  0  0  0  0  0
   16.1720  -13.1660   21.1740 C   0  0  0  0  0  0  0  0  0  0  0  0
   18.1868  -20.3839   20.2864 H   0  0  0  0  0  0  0  0  0  0  0  0
   17.3917  -22.3512   21.4180 H   0  0  0  0  0  0  0  0  0  0  0  0
   16.3367  -22.1753   19.9748 H   0  0  0  0  0  0  0  0  0  0  0  0
   17.6641  -23.3855   19.9748 H   0  0  0  0  0  0  0  0  0  0  0  0
   19.9874  -21.8913   21.0015 H   0  0  0  0  0  0  0  0  0  0  0  0
   19.8782  -22.8020   19.4571 H   0  0  0  0  0  0  0  0  0  0  0  0
   20.4497  -21.0991   19.4571 H   0  0  0  0  0  0  0  0  0  0  0  0
   18.1914  -19.4162   16.0073 H   0  0  0  0  0  0  0  0  0  0  0  0
   20.1476  -21.0829   17.5506 H   0  0  0  0  0  0  0  0  0  0  0  0
   18.9289  -22.5948   16.2942 H   0  0  0  0  0  0  0  0  0  0  0  0
   18.5193  -21.3799   15.0360 H   0  0  0  0  0  0  0  0  0  0  0  0
   20.1360  -22.1630   15.0360 H   0  0  0  0  0  0  0  0  0  0  0  0
   21.7958  -19.6894   16.5794 H   0  0  0  0  0  0  0  0  0  0  0  0
   21.5346  -20.8262   15.2132 H   0  0  0  0  0  0  0  0  0  0  0  0
   20.7275  -19.2214   15.2132 H   0  0  0  0  0  0  0  0  0  0  0  0
   16.8054  -16.4369   17.2755 H   0  0  0  0  0  0  0  0  0  0  0  0
   16.9172  -14.3789   18.8177 H   0  0  0  0  0  0  0  0  0  0  0  0
   16.6057  -16.9637   22.3531 H   0  0  0  0  0  0  0  0  0  0  0  0
   16.4812  -19.0215   20.8159 H   0  0  0  0  0  0  0  0  0  0  0  0
   17.9917  -15.2778   23.2819 H   0  0  0  0  0  0  0  0  0  0  0  0
   18.0655  -13.2495   24.7168 H   0  0  0  0  0  0  0  0  0  0  0  0
   16.8657  -11.0327   23.9100 H   0  0  0  0  0  0  0  0  0  0  0  0
   15.7099  -10.9704   21.7574 H   0  0  0  0  0  0  0  0  0  0  0  0
   15.6246  -13.1494   20.2200 H   0  0  0  0  0  0  0  0  0  0  0  0
  2  1  2  0
  3  2  2  0
  2  4  1  6
  5  4  1  0
  6  5  1  0
  7  6  1  0
  8  6  1  0
  9  4  1  0
 10  9  1  0
 11 10  1  0
 12 10  1  0
 13  9  1  0
 14 13  2  0
 15 13  1  0
 16 15  2  0
 17  2  1  0
 18 17  1  0
 19 18  2  0
 20 19  1  0
 21 20  2  0
 22 21  1  0
 22 17  2  0
 23 20  1  0
 24 23  2  0
 25 24  1  0
 26 25  2  0
 27 26  1  0
 28 27  2  0
 28 23  1  0
  6 29  1  1
  7 30  1  0
  7 31  1  0
  7 32  1  0
  8 33  1  0
  8 34  1  0
  8 35  1  0
  9 36  1  6
 10 37  1  1
 11 38  1  0
 11 39  1  0
 11 40  1  0
 12 41  1  0
 12 42  1  0
 12 43  1  0
 18 44  1  0
 19 45  1  0
 21 46  1  0
 22 47  1  0
 24 48  1  0
 25 49  1  0
 26 50  1  0
 27 51  1  0
 28 52  1  0
M  END
$$$$
