
     RDKit          3D

 37 40  0  0  0  0  0  0  0  0999 V2000
  -17.0430  -18.3660   20.2230 C   0  0  0  0  0  0  0  0  0  0  0  0
  -17.5880  -17.3360   19.4780 C   0  0  0  0  0  0  0  0  0  0  0  0
  -18.2030  -17.6550   18.2720 C   0  0  0  0  0  0  0  0  0  0  0  0
  -19.4960  -14.7950   16.4950 N   0  0  0  0  0  0  0  0  0  0  0  0
  -18.7680  -16.6200   17.3980 C   0  0  0  0  0  0  0  0  0  0  0  0
  -18.8580  -15.2670   17.5880 C   0  0  0  0  0  0  0  0  0  0  0  0
  -19.8040  -15.8120   15.6500 N   0  0  0  0  0  0  0  0  0  0  0  0
  -19.8580  -13.4560   16.1700 C   0  0  0  0  0  0  0  0  0  0  0  0
  -19.8960  -13.0480   14.8460 C   0  0  0  0  0  0  0  0  0  0  0  0
  -20.2020  -11.7330   14.5380 C   0  0  0  0  0  0  0  0  0  0  0  0
  -20.4590  -10.8240   15.5560 C   0  0  0  0  0  0  0  0  0  0  0  0
  -19.3480  -16.9150   16.1960 N   0  0  0  0  0  0  0  0  0  0  0  0
  -20.4270  -11.2370   16.8800 C   0  0  0  0  0  0  0  0  0  0  0  0
  -20.1370  -12.5520   17.1840 C   0  0  0  0  0  0  0  0  0  0  0  0
  -17.7610  -19.9070   18.5480 C   0  0  0  0  0  0  0  0  0  0  0  0
  -18.2970  -18.9130   17.8140 N   0  0  0  0  0  0  0  0  0  0  0  0
  -17.3100  -22.2730   18.7570 N   0  0  0  0  0  0  0  0  0  0  0  0
  -17.3910  -23.6370   18.2380 C   0  0  0  0  0  0  0  0  0  0  0  0
  -20.7520   -9.5240   15.2890 O   0  0  0  0  0  0  0  0  0  0  0  0
  -16.6790  -22.0350   19.9550 C   0  0  0  0  0  0  0  0  0  0  0  0
  -17.8880  -21.2610   17.9880 C   0  0  0  0  0  0  0  0  0  0  0  0
  -16.5660  -20.8150   20.4700 C   0  0  0  0  0  0  0  0  0  0  0  0
  -17.1130  -19.6870   19.7710 C   0  0  0  0  0  0  0  0  0  0  0  0
  -18.4720  -21.5350   16.9560 O   0  0  0  0  0  0  0  0  0  0  0  0
  -16.5496  -18.1435   21.1806 H   0  0  0  0  0  0  0  0  0  0  0  0
  -17.5365  -16.2948   19.8291 H   0  0  0  0  0  0  0  0  0  0  0  0
  -18.4893  -14.6879   18.4475 H   0  0  0  0  0  0  0  0  0  0  0  0
  -19.6835  -13.7673   14.0414 H   0  0  0  0  0  0  0  0  0  0  0  0
  -20.2415  -11.4086   13.4876 H   0  0  0  0  0  0  0  0  0  0  0  0
  -20.6324  -10.5177   17.6865 H   0  0  0  0  0  0  0  0  0  0  0  0
  -20.1272  -12.8835   18.2328 H   0  0  0  0  0  0  0  0  0  0  0  0
  -17.4331  -24.3468   19.0773 H   0  0  0  0  0  0  0  0  0  0  0  0
  -18.2970  -23.7421   17.6230 H   0  0  0  0  0  0  0  0  0  0  0  0
  -16.5038  -23.8486   17.6230 H   0  0  0  0  0  0  0  0  0  0  0  0
  -20.9316   -8.8945   16.0316 H   0  0  0  0  0  0  0  0  0  0  0  0
  -16.2522  -22.8851   20.5073 H   0  0  0  0  0  0  0  0  0  0  0  0
  -16.0531  -20.6697   21.4322 H   0  0  0  0  0  0  0  0  0  0  0  0
  2  1  2  0
  3  2  1  0
  5  3  1  0
  6  5  2  0
  6  4  1  0
  7  4  1  0
  8  4  1  0
  9  8  1  0
 10  9  2  0
 11 10  1  0
 12  5  1  0
 12  7  2  0
 13 11  2  0
 14  8  2  0
 14 13  1  0
 16 15  1  0
 16  3  2  0
 18 17  1  0
 19 11  1  0
 20 17  1  0
 21 17  1  0
 21 15  1  0
 22 20  2  0
 23 22  1  0
 23 15  2  0
 23  1  1  0
 24 21  2  0
  1 25  1  0
  2 26  1  0
  6 27  1  0
  9 28  1  0
 10 29  1  0
 13 30  1  0
 14 31  1  0
 18 32  1  0
 18 33  1  0
 18 34  1  0
 19 35  1  0
 20 36  1  0
 22 37  1  0
M  END
$$$$
