
     RDKit          3D

121123  0  0  0  0  0  0  0  0999 V2000
   26.7720   32.9710  -13.3950 O   0  0  0  0  0  0  0  0  0  0  0  0
   26.0600   31.9610  -13.6450 C   0  0  0  0  0  0  0  0  0  0  0  0
   26.0840   31.3150  -14.7270 O   0  0  0  0  0  0  0  0  0  0  0  0
   25.1130   31.5060  -12.5610 C   0  0  0  0  0  0  0  0  0  0  0  0
   23.9930   30.6750  -13.1470 C   0  0  0  0  0  0  0  0  0  0  0  0
   23.0260   30.3300  -12.0010 C   0  0  1  0  0  0  0  0  0  0  0  0
   21.7130   31.0360  -12.1890 C   0  0  0  0  0  0  0  0  0  0  0  0
   21.2750   31.4020  -13.2770 O   0  0  0  0  0  0  0  0  0  0  0  0
   21.0970   31.2330  -11.0530 N   0  0  0  0  0  0  0  0  0  0  0  0
   19.8520   31.9140  -10.9100 C   0  0  0  0  0  0  0  0  0  0  0  0
   19.9950   32.8800   -9.7320 C   0  0  0  0  0  0  0  0  0  0  0  0
   21.3030   32.7690   -8.8940 C   0  0  0  0  0  0  0  0  0  0  0  0
   22.1760   34.0090   -9.0550 C   0  0  0  0  0  0  0  0  0  0  0  0
   21.3700   35.2800   -8.7510 C   0  0  0  0  0  0  0  0  0  0  0  0
   21.0240   35.5050   -7.4760 N   0  0  0  0  0  0  0  0  0  0  0  0
   21.0540   36.0470   -9.6510 O   0  0  0  0  0  0  0  0  0  0  0  0
   22.8810   28.8800  -11.9900 N   0  0  0  0  0  0  0  0  0  0  0  0
   22.0010   28.4180  -13.0850 C   0  0  0  0  0  0  0  0  0  0  0  0
   23.5820   28.1410  -11.0610 C   0  0  0  0  0  0  0  0  0  0  0  0
   24.2870   28.5780  -10.1650 O   0  0  0  0  0  0  0  0  0  0  0  0
   23.4150   26.6400  -11.0970 C   0  0  2  0  0  0  0  0  0  0  0  0
   22.0740   26.3050  -10.4410 C   0  0  0  0  0  0  0  0  0  0  0  0
   21.6450   24.8760  -10.7540 C   0  0  1  0  0  0  0  0  0  0  0  0
   20.5340   24.4360   -9.8140 C   0  0  0  0  0  0  0  0  0  0  0  0
   21.2460   24.7550  -12.2230 C   0  0  0  0  0  0  0  0  0  0  0  0
   24.4230   25.8130  -10.4420 N   0  0  0  0  0  0  0  0  0  0  0  0
   25.1060   24.8950  -11.1320 C   0  0  0  0  0  0  0  0  0  0  0  0
   24.9690   24.6950  -12.3450 O   0  0  0  0  0  0  0  0  0  0  0  0
   26.1180   24.0700  -10.3230 C   0  0  2  0  0  0  0  0  0  0  0  0
   27.5240   24.4490  -10.7820 C   0  0  0  0  0  0  0  0  0  0  0  0
   25.9950   22.6250  -10.5650 N   0  0  0  0  0  0  0  0  0  0  0  0
   27.1740   22.1110  -11.2220 C   0  0  0  0  0  0  0  0  0  0  0  0
   27.9030   23.3390  -11.7130 C   0  0  1  0  0  0  0  0  0  0  0  0
   27.4860   23.6320  -13.0850 N   0  0  0  0  0  0  0  0  0  0  0  0
   24.9010   21.9540  -10.2650 C   0  0  0  0  0  0  0  0  0  0  0  0
   23.9800   22.5140   -9.7340 O   0  0  0  0  0  0  0  0  0  0  0  0
   24.7720   20.4740  -10.5900 C   0  0  0  0  0  0  0  0  0  0  0  0
   24.3640   19.6930   -9.3650 C   0  0  0  0  0  0  0  0  0  0  0  0
   25.4160   18.7780   -8.8050 C   0  0  2  0  0  0  0  0  0  0  0  0
   26.6290   19.5470   -8.3600 C   0  0  0  0  0  0  0  0  0  0  0  0
   26.4820   20.1700   -7.2740 O   0  0  0  0  0  0  0  0  0  0  0  0
   27.6990   19.5480   -9.0500 O   0  0  0  0  0  0  0  0  0  0  0  0
   25.6470   17.7860   -9.8320 N   0  0  0  0  0  0  0  0  0  0  0  0
   25.8430   16.2980   -9.2110 S   0  0  2  0  0  0  0  0  0  0  0  0
   25.9890   15.4270  -10.3840 O   0  0  0  0  0  0  0  0  0  0  0  0
   24.7220   15.9200   -8.3730 O   0  0  0  0  0  0  0  0  0  0  0  0
   27.1140   16.2040   -8.2610 C   0  0  0  0  0  0  0  0  0  0  0  0
   28.3820   16.2170   -8.7870 C   0  0  0  0  0  0  0  0  0  0  0  0
   26.9620   16.0580   -6.8780 C   0  0  0  0  0  0  0  0  0  0  0  0
   28.0460   15.9480   -5.9900 C   0  0  0  0  0  0  0  0  0  0  0  0
   29.3150   15.9960   -6.5180 C   0  0  0  0  0  0  0  0  0  0  0  0
   29.4580   16.1150   -7.8970 C   0  0  0  0  0  0  0  0  0  0  0  0
   30.4610   15.8580   -5.8260 N   0  0  0  0  0  0  0  0  0  0  0  0
   30.5850   15.5470   -4.5380 C   0  0  0  0  0  0  0  0  0  0  0  0
   29.6460   15.3680   -3.7910 O   0  0  0  0  0  0  0  0  0  0  0  0
   31.9620   15.3590   -4.0470 C   0  0  0  0  0  0  0  0  0  0  0  0
   33.0810   15.7730   -4.7970 C   0  0  0  0  0  0  0  0  0  0  0  0
   32.1380   14.6790   -2.8830 C   0  0  0  0  0  0  0  0  0  0  0  0
   33.4210   14.4350   -2.4280 C   0  0  0  0  0  0  0  0  0  0  0  0
   34.5330   14.8560   -3.1760 C   0  0  0  0  0  0  0  0  0  0  0  0
   34.3720   15.5290   -4.3720 C   0  0  0  0  0  0  0  0  0  0  0  0
   35.9040   14.5510   -2.6470 C   0  0  0  0  0  0  0  0  0  0  0  0
   36.7420   15.4060   -2.6830 O   0  0  0  0  0  0  0  0  0  0  0  0
   36.1750   13.3650   -2.1110 N   0  0  0  0  0  0  0  0  0  0  0  0
   26.6957   33.4258  -12.5190 H   0  0  0  0  0  0  0  0  0  0  0  0
   25.6666   30.9010  -11.8278 H   0  0  0  0  0  0  0  0  0  0  0  0
   24.6798   32.3919  -12.0737 H   0  0  0  0  0  0  0  0  0  0  0  0
   23.4659   31.2489  -13.9234 H   0  0  0  0  0  0  0  0  0  0  0  0
   24.3903   29.7588  -13.6083 H   0  0  0  0  0  0  0  0  0  0  0  0
   23.4145   30.6691  -11.0294 H   0  0  0  0  0  0  0  0  0  0  0  0
   21.5434   30.8699  -10.1987 H   0  0  0  0  0  0  0  0  0  0  0  0
   19.6206   32.4725  -11.8290 H   0  0  0  0  0  0  0  0  0  0  0  0
   19.0353   31.1993  -10.7309 H   0  0  0  0  0  0  0  0  0  0  0  0
   19.9403   33.9035  -10.1312 H   0  0  0  0  0  0  0  0  0  0  0  0
   19.1831   32.6144   -9.0389 H   0  0  0  0  0  0  0  0  0  0  0  0
   21.0388   32.6531   -7.8325 H   0  0  0  0  0  0  0  0  0  0  0  0
   21.8706   31.8979   -9.2533 H   0  0  0  0  0  0  0  0  0  0  0  0
   23.0264   33.9452   -8.3601 H   0  0  0  0  0  0  0  0  0  0  0  0
   22.5361   34.0571  -10.0933 H   0  0  0  0  0  0  0  0  0  0  0  0
   20.4830   36.3463   -7.2299 H   0  0  0  0  0  0  0  0  0  0  0  0
   21.2990   34.8367   -6.7421 H   0  0  0  0  0  0  0  0  0  0  0  0
   21.1029   27.9465  -12.6595 H   0  0  0  0  0  0  0  0  0  0  0  0
   21.7053   29.2771  -13.7050 H   0  0  0  0  0  0  0  0  0  0  0  0
   22.5403   27.6867  -13.7050 H   0  0  0  0  0  0  0  0  0  0  0  0
   23.5040   26.3937  -12.1654 H   0  0  0  0  0  0  0  0  0  0  0  0
   22.1698   26.4196   -9.3512 H   0  0  0  0  0  0  0  0  0  0  0  0
   21.3120   26.9910  -10.8394 H   0  0  0  0  0  0  0  0  0  0  0  0
   22.4941   24.1965  -10.5886 H   0  0  0  0  0  0  0  0  0  0  0  0
   20.8622   24.5660   -8.7722 H   0  0  0  0  0  0  0  0  0  0  0  0
   19.6373   25.0469   -9.9949 H   0  0  0  0  0  0  0  0  0  0  0  0
   20.2987   23.3768   -9.9949 H   0  0  0  0  0  0  0  0  0  0  0  0
   20.1954   24.4364  -12.2926 H   0  0  0  0  0  0  0  0  0  0  0  0
   21.3669   25.7302  -12.7173 H   0  0  0  0  0  0  0  0  0  0  0  0
   21.8882   24.0112  -12.7173 H   0  0  0  0  0  0  0  0  0  0  0  0
   24.6101   25.9382   -9.4369 H   0  0  0  0  0  0  0  0  0  0  0  0
   25.9270   24.2815   -9.2606 H   0  0  0  0  0  0  0  0  0  0  0  0
   27.5185   25.4162  -11.3060 H   0  0  0  0  0  0  0  0  0  0  0  0
   28.2294   24.5646   -9.9459 H   0  0  0  0  0  0  0  0  0  0  0  0
   27.7981   21.5463  -10.5137 H   0  0  0  0  0  0  0  0  0  0  0  0
   26.9269   21.4180  -12.0397 H   0  0  0  0  0  0  0  0  0  0  0  0
   28.9944   23.2019  -11.7231 H   0  0  0  0  0  0  0  0  0  0  0  0
   26.6433   24.2241  -13.0687 H   0  0  0  0  0  0  0  0  0  0  0  0
   28.2441   24.1272  -13.5759 H   0  0  0  0  0  0  0  0  0  0  0  0
   24.0110   20.3412  -11.3731 H   0  0  0  0  0  0  0  0  0  0  0  0
   25.7468   20.1020  -10.9384 H   0  0  0  0  0  0  0  0  0  0  0  0
   24.0872   20.4125   -8.5803 H   0  0  0  0  0  0  0  0  0  0  0  0
   23.5344   19.0437   -9.6815 H   0  0  0  0  0  0  0  0  0  0  0  0
   25.1035   18.2680   -7.8818 H   0  0  0  0  0  0  0  0  0  0  0  0
   27.2294   20.7038   -6.9044 H   0  0  0  0  0  0  0  0  0  0  0  0
   24.8394   17.7754  -10.4712 H   0  0  0  0  0  0  0  0  0  0  0  0
   28.5470   16.3046   -9.8710 H   0  0  0  0  0  0  0  0  0  0  0  0
   25.9430   16.0278   -6.4648 H   0  0  0  0  0  0  0  0  0  0  0  0
   27.8847   15.8275   -4.9086 H   0  0  0  0  0  0  0  0  0  0  0  0
   30.4765   16.1298   -8.3124 H   0  0  0  0  0  0  0  0  0  0  0  0
   31.3353   16.0092   -6.3490 H   0  0  0  0  0  0  0  0  0  0  0  0
   32.9217   16.3049   -5.7466 H   0  0  0  0  0  0  0  0  0  0  0  0
   31.2686   14.3264   -2.3088 H   0  0  0  0  0  0  0  0  0  0  0  0
   33.5717   13.9079   -1.4743 H   0  0  0  0  0  0  0  0  0  0  0  0
   35.2394   15.8579   -4.9632 H   0  0  0  0  0  0  0  0  0  0  0  0
   37.1193   13.1662   -1.7510 H   0  0  0  0  0  0  0  0  0  0  0  0
   35.4406   12.6449   -2.0558 H   0  0  0  0  0  0  0  0  0  0  0  0
  2  1  1  0
  3  2  2  0
  4  2  1  0
  5  4  1  0
  6  5  1  0
  7  6  1  0
  8  7  2  0
  9  7  1  0
 10  9  1  0
 11 10  1  0
 12 11  1  0
 13 12  1  0
 14 13  1  0
 15 14  1  0
 16 14  2  0
 17  6  1  0
 18 17  1  0
 19 17  1  0
 20 19  2  0
 21 19  1  0
 22 21  1  0
 23 22  1  0
 24 23  1  0
 25 23  1  0
 26 21  1  0
 27 26  1  0
 28 27  2  0
 29 27  1  0
 30 29  1  0
 31 29  1  0
 32 31  1  0
 33 32  1  0
 33 30  1  0
 34 33  1  0
 35 31  1  0
 36 35  2  0
 37 35  1  0
 38 37  1  0
 39 38  1  0
 40 39  1  0
 41 40  1  0
 42 40  2  0
 43 39  1  0
 44 43  1  6
 45 44  2  0
 46 44  2  0
 47 44  1  0
 48 47  2  0
 49 47  1  0
 50 49  2  0
 51 50  1  0
 52 51  2  0
 52 48  1  0
 53 51  1  0
 54 53  1  0
 55 54  2  0
 56 54  1  0
 57 56  2  0
 58 56  1  0
 59 58  2  0
 60 59  1  0
 61 60  2  0
 61 57  1  0
 62 60  1  0
 63 62  2  0
 64 62  1  0
  1 65  1  0
  4 66  1  0
  4 67  1  0
  5 68  1  0
  5 69  1  0
  6 70  1  1
  9 71  1  0
 10 72  1  0
 10 73  1  0
 11 74  1  0
 11 75  1  0
 12 76  1  0
 12 77  1  0
 13 78  1  0
 13 79  1  0
 15 80  1  0
 15 81  1  0
 18 82  1  0
 18 83  1  0
 18 84  1  0
 21 85  1  6
 22 86  1  0
 22 87  1  0
 23 88  1  6
 24 89  1  0
 24 90  1  0
 24 91  1  0
 25 92  1  0
 25 93  1  0
 25 94  1  0
 26 95  1  0
 29 96  1  1
 30 97  1  0
 30 98  1  0
 32 99  1  0
 32100  1  0
 33101  1  6
 34102  1  0
 34103  1  0
 37104  1  0
 37105  1  0
 38106  1  0
 38107  1  0
 39108  1  1
 41109  1  0
 43110  1  0
 48111  1  0
 49112  1  0
 50113  1  0
 52114  1  0
 53115  1  0
 57116  1  0
 58117  1  0
 59118  1  0
 61119  1  0
 64120  1  0
 64121  1  0
M  END
$$$$
