
     RDKit          3D

 64 69  0  0  0  0  0  0  0  0999 V2000
   12.2400   36.6010   54.1090 N   0  0  0  0  0  0  0  0  0  0  0  0
   11.5080   35.4680   54.2780 C   0  0  0  0  0  0  0  0  0  0  0  0
   12.0470   34.3120   54.4250 N   0  0  0  0  0  0  0  0  0  0  0  0
   13.6020   36.6010   53.9390 C   0  0  0  0  0  0  0  0  0  0  0  0
   14.2480   35.2840   53.9350 C   0  0  0  0  0  0  0  0  0  0  0  0
   13.4770   34.2380   54.2920 C   0  0  0  0  0  0  0  0  0  0  0  0
   14.3470   33.1010   54.3480 C   0  0  0  0  0  0  0  0  0  0  0  0
   15.5760   33.5440   54.0240 C   0  0  0  0  0  0  0  0  0  0  0  0
   15.4990   34.8740   53.8790 N   0  0  0  0  0  0  0  0  0  0  0  0
   13.8150   31.8000   54.6850 C   0  0  0  0  0  0  0  0  0  0  0  0
   13.3860   30.7490   54.9060 N   0  0  0  0  0  0  0  0  0  0  0  0
   16.6350   32.7590   54.1160 N   0  0  0  0  0  0  0  0  0  0  0  0
   17.6980   33.1560   55.0820 C   0  0  0  0  0  0  0  0  0  0  0  0
   19.1080   32.7130   54.6880 C   0  0  2  0  0  0  0  0  0  0  0  0
   18.9860   31.1560   54.6380 C   0  0  0  0  0  0  0  0  0  0  0  0
   18.0710   30.8120   53.4240 C   0  0  0  0  0  0  0  0  0  0  0  0
   16.6330   31.3420   53.6630 C   0  0  0  0  0  0  0  0  0  0  0  0
   20.0470   33.1090   55.7590 N   0  0  0  0  0  0  0  0  0  0  0  0
   16.5330   35.6260   53.1780 C   0  0  0  0  0  0  0  0  0  0  0  0
   17.4980   36.4530   53.9950 C   0  0  0  0  0  0  0  0  0  0  0  0
   18.5580   37.0310   53.2810 C   0  0  0  0  0  0  0  0  0  0  0  0
   19.4890   37.8030   53.9890 C   0  0  0  0  0  0  0  0  0  0  0  0
   19.2840   38.0290   55.3550 C   0  0  0  0  0  0  0  0  0  0  0  0
   18.2460   37.4290   56.0500 C   0  0  0  0  0  0  0  0  0  0  0  0
   17.3220   36.6160   55.3770 C   0  0  0  0  0  0  0  0  0  0  0  0
   14.2880   37.6170   53.7850 O   0  0  0  0  0  0  0  0  0  0  0  0
   11.5420   37.9000   54.1680 C   0  0  0  0  0  0  0  0  0  0  0  0
    9.3380   39.8360   54.4360 C   0  0  0  0  0  0  0  0  0  0  0  0
    8.2610   40.7220   54.5430 C   0  0  0  0  0  0  0  0  0  0  0  0
    7.5160   40.7800   55.7390 C   0  0  0  0  0  0  0  0  0  0  0  0
    7.8940   40.0060   56.8550 C   0  0  0  0  0  0  0  0  0  0  0  0
   10.7570   38.0670   55.4770 C   0  0  0  0  0  0  0  0  0  0  0  0
    9.6690   38.9860   55.5230 C   0  0  0  0  0  0  0  0  0  0  0  0
    8.9760   39.1160   56.7400 C   0  0  0  0  0  0  0  0  0  0  0  0
    9.3290   38.3720   57.8350 N   0  0  0  0  0  0  0  0  0  0  0  0
   10.4310   37.5940   57.8570 C   0  0  0  0  0  0  0  0  0  0  0  0
   11.1710   37.4370   56.6740 C   0  0  0  0  0  0  0  0  0  0  0  0
   10.4107   35.5446   54.2892 H   0  0  0  0  0  0  0  0  0  0  0  0
   17.6932   34.2527   55.1671 H   0  0  0  0  0  0  0  0  0  0  0  0
   17.4642   32.6510   56.0308 H   0  0  0  0  0  0  0  0  0  0  0  0
   19.4700   33.1487   53.7451 H   0  0  0  0  0  0  0  0  0  0  0  0
   19.9793   30.7029   54.5033 H   0  0  0  0  0  0  0  0  0  0  0  0
   18.5617   30.7642   55.5742 H   0  0  0  0  0  0  0  0  0  0  0  0
   18.4827   31.2777   52.5165 H   0  0  0  0  0  0  0  0  0  0  0  0
   18.0331   29.7192   53.3043 H   0  0  0  0  0  0  0  0  0  0  0  0
   16.0659   31.2694   52.7232 H   0  0  0  0  0  0  0  0  0  0  0  0
   16.1701   30.7313   54.4521 H   0  0  0  0  0  0  0  0  0  0  0  0
   19.6168   32.9276   56.6771 H   0  0  0  0  0  0  0  0  0  0  0  0
   20.9160   32.5628   55.6730 H   0  0  0  0  0  0  0  0  0  0  0  0
   17.1300   34.9015   52.6047 H   0  0  0  0  0  0  0  0  0  0  0  0
   15.9749   36.3669   52.5868 H   0  0  0  0  0  0  0  0  0  0  0  0
   18.6558   36.8824   52.1955 H   0  0  0  0  0  0  0  0  0  0  0  0
   20.3675   38.2249   53.4789 H   0  0  0  0  0  0  0  0  0  0  0  0
   19.9671   38.7029   55.8928 H   0  0  0  0  0  0  0  0  0  0  0  0
   18.1463   37.5909   57.1334 H   0  0  0  0  0  0  0  0  0  0  0  0
   16.4939   36.1267   55.9108 H   0  0  0  0  0  0  0  0  0  0  0  0
   12.2854   38.7073   54.0933 H   0  0  0  0  0  0  0  0  0  0  0  0
   10.8271   37.9421   53.3330 H   0  0  0  0  0  0  0  0  0  0  0  0
    9.9287   39.7981   53.5088 H   0  0  0  0  0  0  0  0  0  0  0  0
    7.9957   41.3721   53.6962 H   0  0  0  0  0  0  0  0  0  0  0  0
    6.6336   41.4339   55.8015 H   0  0  0  0  0  0  0  0  0  0  0  0
    7.3481   40.0975   57.8056 H   0  0  0  0  0  0  0  0  0  0  0  0
   10.7440   37.0920   58.7844 H   0  0  0  0  0  0  0  0  0  0  0  0
   12.0807   36.8186   56.6781 H   0  0  0  0  0  0  0  0  0  0  0  0
  2  1  1  0
  3  2  2  0
  4  1  1  0
  5  4  1  0
  6  5  2  0
  6  3  1  0
  7  6  1  0
  8  7  2  0
  9  8  1  0
  9  5  1  0
 10  7  1  0
 11 10  3  0
 12  8  1  0
 13 12  1  0
 14 13  1  0
 15 14  1  0
 16 15  1  0
 17 16  1  0
 17 12  1  0
 18 14  1  0
 19  9  1  0
 20 19  1  0
 21 20  2  0
 22 21  1  0
 23 22  2  0
 24 23  1  0
 25 20  1  0
 25 24  2  0
 26  4  2  0
 27  1  1  0
 29 28  1  0
 30 29  2  0
 31 30  1  0
 32 27  1  0
 33 32  1  0
 33 28  2  0
 34 33  1  0
 34 31  2  0
 35 34  1  0
 36 35  2  0
 37 36  1  0
 37 32  2  0
  2 38  1  0
 13 39  1  0
 13 40  1  0
 14 41  1  6
 15 42  1  0
 15 43  1  0
 16 44  1  0
 16 45  1  0
 17 46  1  0
 17 47  1  0
 18 48  1  0
 18 49  1  0
 19 50  1  0
 19 51  1  0
 21 52  1  0
 22 53  1  0
 23 54  1  0
 24 55  1  0
 25 56  1  0
 27 57  1  0
 27 58  1  0
 28 59  1  0
 29 60  1  0
 30 61  1  0
 31 62  1  0
 36 63  1  0
 37 64  1  0
M  END
$$$$
