
     RDKit          3D

 53 58  0  0  0  0  0  0  0  0999 V2000
   20.7130   18.1310  -12.8680 C   0  0  0  0  0  0  0  0  0  0  0  0
   20.2130   17.8520  -15.4970 N   0  0  0  0  0  0  0  0  0  0  0  0
   20.9260   18.2360  -11.7050 O   0  0  0  0  0  0  0  0  0  0  0  0
   21.4710   18.8930  -13.7730 C   0  0  0  0  0  0  0  0  0  0  0  0
   19.0330   16.5120  -12.3490 O   0  0  0  0  0  0  0  0  0  0  0  0
   17.6090   15.5800  -14.6690 O   0  0  0  0  0  0  0  0  0  0  0  0
   19.5050   17.0840  -14.6870 C   0  0  0  0  0  0  0  0  0  0  0  0
   16.6920   18.1930  -18.1600 O   0  0  0  0  0  0  0  0  0  0  0  0
   19.7230   17.2590  -13.3000 C   0  0  0  0  0  0  0  0  0  0  0  0
   18.3870   16.2210  -15.2880 C   0  0  0  0  0  0  0  0  0  0  0  0
   18.8780   17.2740  -17.5420 C   0  0  2  0  0  0  0  0  0  0  0  0
   22.0670   16.8910  -19.6810 C   0  0  0  0  0  0  0  0  0  0  0  0
   22.5860   18.3260  -19.5040 C   0  0  0  0  0  0  0  0  0  0  0  0
   23.6440   17.2000  -16.7090 C   0  0  0  0  0  0  0  0  0  0  0  0
   22.4660   16.6080  -16.4490 C   0  0  0  0  0  0  0  0  0  0  0  0
   24.7930   17.0210  -15.9390 C   0  0  0  0  0  0  0  0  0  0  0  0
   24.7290   16.1710  -14.8290 C   0  0  0  0  0  0  0  0  0  0  0  0
   23.5240   15.5440  -14.5360 C   0  0  0  0  0  0  0  0  0  0  0  0
   22.3920   15.7240  -15.3280 C   0  0  0  0  0  0  0  0  0  0  0  0
   21.0570   14.8640  -18.9080 C   0  0  0  0  0  0  0  0  0  0  0  0
   21.2680   14.2930  -20.1850 C   0  0  0  0  0  0  0  0  0  0  0  0
   21.9040   15.0580  -21.1920 C   0  0  0  0  0  0  0  0  0  0  0  0
   22.3000   16.3460  -20.9270 C   0  0  0  0  0  0  0  0  0  0  0  0
   22.1530   14.5770  -22.4510 F   0  0  0  0  0  0  0  0  0  0  0  0
   21.4450   16.1940  -18.7010 C   0  0  0  0  0  0  0  0  0  0  0  0
   22.8990   17.1170  -21.8520 F   0  0  0  0  0  0  0  0  0  0  0  0
   23.7880   18.3250  -18.1290 S   0  0  0  0  0  0  0  0  0  0  0  0
   21.3210   17.0590  -17.4140 C   0  0  1  0  0  0  0  0  0  0  0  0
   20.0810   17.5910  -16.8710 N   0  0  0  0  0  0  0  0  0  0  0  0
   18.0050   18.5240  -17.7870 C   0  0  0  0  0  0  0  0  0  0  0  0
   16.0850   16.9490  -17.7960 C   0  0  0  0  0  0  0  0  0  0  0  0
   16.9870   15.7460  -17.3990 C   0  0  0  0  0  0  0  0  0  0  0  0
   18.1090   16.3640  -16.7050 N   0  0  0  0  0  0  0  0  0  0  0  0
   21.1900   18.7200  -15.1060 C   0  0  0  0  0  0  0  0  0  0  0  0
   22.2490   19.5917  -13.4315 H   0  0  0  0  0  0  0  0  0  0  0  0
   19.2065   16.6563  -11.3851 H   0  0  0  0  0  0  0  0  0  0  0  0
   19.1421   16.8287  -18.5126 H   0  0  0  0  0  0  0  0  0  0  0  0
   23.0771   18.6622  -20.4291 H   0  0  0  0  0  0  0  0  0  0  0  0
   21.7529   19.0094  -19.2831 H   0  0  0  0  0  0  0  0  0  0  0  0
   25.7293   17.5368  -16.1985 H   0  0  0  0  0  0  0  0  0  0  0  0
   25.6158   16.0024  -14.2004 H   0  0  0  0  0  0  0  0  0  0  0  0
   23.4622   14.8880  -13.6552 H   0  0  0  0  0  0  0  0  0  0  0  0
   21.4565   15.1945  -15.0945 H   0  0  0  0  0  0  0  0  0  0  0  0
   20.5994   14.2779  -18.0974 H   0  0  0  0  0  0  0  0  0  0  0  0
   20.9408   13.2637  -20.3936 H   0  0  0  0  0  0  0  0  0  0  0  0
   21.4092   18.0969  -17.7676 H   0  0  0  0  0  0  0  0  0  0  0  0
   17.9707   19.1182  -16.8620 H   0  0  0  0  0  0  0  0  0  0  0  0
   18.4562   19.0926  -18.6135 H   0  0  0  0  0  0  0  0  0  0  0  0
   15.4268   17.1526  -16.9385 H   0  0  0  0  0  0  0  0  0  0  0  0
   15.6016   16.6147  -18.7258 H   0  0  0  0  0  0  0  0  0  0  0  0
   16.4479   15.0552  -16.7340 H   0  0  0  0  0  0  0  0  0  0  0  0
   17.3021   15.1474  -18.2664 H   0  0  0  0  0  0  0  0  0  0  0  0
   21.7555   19.2842  -15.8622 H   0  0  0  0  0  0  0  0  0  0  0  0
  3  1  2  0
  4  1  1  0
  7  2  1  0
  9  7  2  0
  9  5  1  0
  9  1  1  0
 10  6  2  0
 10  7  1  0
 13 12  1  0
 15 14  1  0
 16 14  2  0
 17 16  1  0
 18 17  2  0
 19 18  1  0
 19 15  2  0
 21 20  2  0
 22 21  1  0
 23 22  2  0
 23 12  1  0
 24 22  1  0
 25 20  1  0
 25 12  2  0
 26 23  1  0
 27 14  1  0
 27 13  1  0
 28 25  1  0
 28 15  1  0
 29 28  1  0
 29 11  1  0
 29  2  1  0
 30 11  1  0
 30  8  1  0
 31  8  1  0
 32 31  1  0
 33 32  1  0
 33 10  1  0
 33 11  1  0
 34  4  2  0
 34  2  1  0
  4 35  1  0
  5 36  1  0
 11 37  1  6
 13 38  1  0
 13 39  1  0
 16 40  1  0
 17 41  1  0
 18 42  1  0
 19 43  1  0
 20 44  1  0
 21 45  1  0
 28 46  1  6
 30 47  1  0
 30 48  1  0
 31 49  1  0
 31 50  1  0
 32 51  1  0
 32 52  1  0
 34 53  1  0
M  END
$$$$
