
     RDKit          3D

 44 44  0  0  0  0  0  0  0  0999 V2000
   47.7630   22.8140  -20.9770 C   0  0  0  0  0  0  0  0  0  0  0  0
   47.7230   23.9770  -21.4350 O   0  0  0  0  0  0  0  0  0  0  0  0
   48.1160   22.5690  -19.8010 O   0  0  0  0  0  0  0  0  0  0  0  0
   47.3580   21.7100  -21.8440 C   0  0  0  0  0  0  0  0  0  0  0  0
   47.3020   20.2890  -21.3100 C   0  0  0  0  0  0  0  0  0  0  0  0
   46.0840   19.5610  -21.8760 C   0  0  1  0  0  0  0  0  0  0  0  0
   46.0130   19.7350  -23.3970 C   0  0  1  0  0  0  0  0  0  0  0  0
   44.8980   18.9810  -23.9320 N   0  0  0  0  0  0  0  0  0  0  0  0
   45.0450   17.9110  -24.7070 C   0  0  0  0  0  0  0  0  0  0  0  0
   46.1350   17.4570  -25.0230 O   0  0  0  0  0  0  0  0  0  0  0  0
   43.7590   17.2890  -25.1620 C   0  0  0  0  0  0  0  0  0  0  0  0
   45.8670   21.2170  -23.7530 C   0  0  1  0  0  0  0  0  0  0  0  0
   47.0150   21.9680  -23.1200 C   0  0  0  0  0  0  0  0  0  0  0  0
   45.9210   21.4510  -25.1610 O   0  0  0  0  0  0  0  0  0  0  0  0
   44.6490   21.7140  -25.7700 C   0  0  1  0  0  0  0  0  0  0  0  0
   43.9970   23.0180  -25.2750 C   0  0  0  0  0  0  0  0  0  0  0  0
   44.8480   21.6840  -27.2840 C   0  0  0  0  0  0  0  0  0  0  0  0
   45.2350   20.2950  -27.7510 C   0  0  0  0  0  0  0  0  0  0  0  0
   44.6810   24.2800  -25.7490 C   0  0  0  0  0  0  0  0  0  0  0  0
   46.1630   18.1610  -21.4980 N   0  0  0  0  0  0  0  0  0  0  0  0
   48.1350   21.6346  -19.4743 H   0  0  0  0  0  0  0  0  0  0  0  0
   48.2158   19.7531  -21.6062 H   0  0  0  0  0  0  0  0  0  0  0  0
   47.2242   20.3203  -20.2132 H   0  0  0  0  0  0  0  0  0  0  0  0
   45.1600   19.9900  -21.4610 H   0  0  0  0  0  0  0  0  0  0  0  0
   46.9448   19.3551  -23.8415 H   0  0  0  0  0  0  0  0  0  0  0  0
   43.9430   19.2895  -23.7003 H   0  0  0  0  0  0  0  0  0  0  0  0
   43.1611   16.9998  -24.2851 H   0  0  0  0  0  0  0  0  0  0  0  0
   43.1951   18.0139  -25.7674 H   0  0  0  0  0  0  0  0  0  0  0  0
   43.9772   16.3969  -25.7674 H   0  0  0  0  0  0  0  0  0  0  0  0
   44.8864   21.5541  -23.3859 H   0  0  0  0  0  0  0  0  0  0  0  0
   47.5681   22.7222  -23.6991 H   0  0  0  0  0  0  0  0  0  0  0  0
   43.9312   20.9351  -25.4733 H   0  0  0  0  0  0  0  0  0  0  0  0
   42.9558   23.0376  -25.6294 H   0  0  0  0  0  0  0  0  0  0  0  0
   44.0779   23.0114  -24.1780 H   0  0  0  0  0  0  0  0  0  0  0  0
   43.9104   21.9814  -27.7765 H   0  0  0  0  0  0  0  0  0  0  0  0
   45.6574   22.3812  -27.5461 H   0  0  0  0  0  0  0  0  0  0  0  0
   45.4144   19.6512  -26.8773 H   0  0  0  0  0  0  0  0  0  0  0  0
   44.4206   19.8718  -28.3573 H   0  0  0  0  0  0  0  0  0  0  0  0
   46.1509   20.3539  -28.3573 H   0  0  0  0  0  0  0  0  0  0  0  0
   45.0019   24.8720  -24.8792 H   0  0  0  0  0  0  0  0  0  0  0  0
   45.5591   24.0152  -26.3564 H   0  0  0  0  0  0  0  0  0  0  0  0
   43.9798   24.8711  -26.3564 H   0  0  0  0  0  0  0  0  0  0  0  0
   46.1674   18.0824  -20.4710 H   0  0  0  0  0  0  0  0  0  0  0  0
   45.3491   17.6565  -21.8774 H   0  0  0  0  0  0  0  0  0  0  0  0
  2  1  2  0
  3  1  1  0
  4  1  1  0
  5  4  1  0
  6  5  1  0
  7  6  1  0
  8  7  1  0
  9  8  1  0
 10  9  2  0
 11  9  1  0
 12  7  1  0
 13 12  1  0
 13  4  2  0
 14 12  1  0
 15 14  1  0
 16 15  1  0
 17 15  1  0
 18 17  1  0
 19 16  1  0
 20  6  1  0
  3 21  1  0
  5 22  1  0
  5 23  1  0
  6 24  1  1
  7 25  1  6
  8 26  1  0
 11 27  1  0
 11 28  1  0
 11 29  1  0
 12 30  1  1
 13 31  1  0
 15 32  1  6
 16 33  1  0
 16 34  1  0
 17 35  1  0
 17 36  1  0
 18 37  1  0
 18 38  1  0
 18 39  1  0
 19 40  1  0
 19 41  1  0
 19 42  1  0
 20 43  1  0
 20 44  1  0
M  END
$$$$
