Glucogallin
     RDKit          3D

 39 40  0  0  0  0  0  0  0  0999 V2000
   -3.2989   -0.2295    3.0105 C   0  0  0  0  0  0  0  0  0  0  0  0
   -3.7346    0.1461    1.7097 O   0  0  0  0  0  0  0  0  0  0  0  0
   -2.6964   -0.0181    0.7323 C   0  0  2  0  0  0  0  0  0  0  0  0
   -3.2482    0.5555   -0.5847 C   0  0  2  0  0  0  0  0  0  0  0  0
   -2.2319    0.3529   -1.7031 C   0  0  1  0  0  0  0  0  0  0  0  0
   -1.8295   -1.1194   -1.7912 C   0  0  2  0  0  0  0  0  0  0  0  0
   -1.3446   -1.6153   -0.4119 C   0  0  0  0  0  0  0  0  0  0  0  0
   -2.3568   -1.3935    0.5837 O   0  0  0  0  0  0  0  0  0  0  0  0
   -0.1352   -0.9402   -0.0334 O   0  0  0  0  0  0  0  0  0  0  0  0
    1.0125   -1.6188   -0.2631 C   0  0  0  0  0  0  0  0  0  0  0  0
    1.1155   -2.7685   -0.6581 O   0  0  0  0  0  0  0  0  0  0  0  0
    2.1907   -0.7641    0.0434 C   0  0  0  0  0  0  0  0  0  0  0  0
    3.4674   -1.2782   -0.2531 C   0  0  0  0  0  0  0  0  0  0  0  0
    4.5959   -0.5126    0.0191 C   0  0  0  0  0  0  0  0  0  0  0  0
    4.4630    0.7507    0.5822 C   0  0  0  0  0  0  0  0  0  0  0  0
    3.2043    1.2577    0.8761 C   0  0  0  0  0  0  0  0  0  0  0  0
    2.0622    0.5132    0.6122 C   0  0  0  0  0  0  0  0  0  0  0  0
    3.0791    2.4982    1.4308 O   0  0  0  0  0  0  0  0  0  0  0  0
    5.5666    1.5118    0.8552 O   0  0  0  0  0  0  0  0  0  0  0  0
    5.8588   -0.9604   -0.2497 O   0  0  0  0  0  0  0  0  0  0  0  0
   -0.8348   -1.2689   -2.8099 O   0  0  0  0  0  0  0  0  0  0  0  0
   -2.7926    0.7624   -2.9629 O   0  0  0  0  0  0  0  0  0  0  0  0
   -3.5404    1.9571   -0.4704 O   0  0  0  0  0  0  0  0  0  0  0  0
   -3.0545   -1.2951    3.0470 H   0  0  0  0  0  0  0  0  0  0  0  0
   -2.4343    0.3680    3.3153 H   0  0  0  0  0  0  0  0  0  0  0  0
   -4.1160   -0.0396    3.7119 H   0  0  0  0  0  0  0  0  0  0  0  0
   -1.8280    0.5660    1.0644 H   0  0  0  0  0  0  0  0  0  0  0  0
   -4.1938    0.0651   -0.8486 H   0  0  0  0  0  0  0  0  0  0  0  0
   -1.3514    0.9896   -1.5528 H   0  0  0  0  0  0  0  0  0  0  0  0
   -2.6997   -1.7104   -2.1035 H   0  0  0  0  0  0  0  0  0  0  0  0
   -1.1911   -2.6992   -0.4531 H   0  0  0  0  0  0  0  0  0  0  0  0
    3.5590   -2.2677   -0.6943 H   0  0  0  0  0  0  0  0  0  0  0  0
    1.0924    0.9359    0.8548 H   0  0  0  0  0  0  0  0  0  0  0  0
    3.9981    2.8253    1.5182 H   0  0  0  0  0  0  0  0  0  0  0  0
    6.3206    0.9569    0.5662 H   0  0  0  0  0  0  0  0  0  0  0  0
    5.7929   -1.8476   -0.6467 H   0  0  0  0  0  0  0  0  0  0  0  0
   -1.1842   -0.7797   -3.5822 H   0  0  0  0  0  0  0  0  0  0  0  0
   -3.1849    1.6432   -2.7912 H   0  0  0  0  0  0  0  0  0  0  0  0
   -4.0973    2.0366    0.3307 H   0  0  0  0  0  0  0  0  0  0  0  0
  1  2  1  0
  2  3  1  0
  3  4  1  0
  4  5  1  0
  5  6  1  0
  6  7  1  0
  7  8  1  0
  7  9  1  0
  9 10  1  0
 10 11  2  0
 10 12  1  0
 12 13  2  0
 13 14  1  0
 14 15  2  0
 15 16  1  0
 16 17  2  0
 16 18  1  0
 15 19  1  0
 14 20  1  0
  6 21  1  0
  5 22  1  0
  4 23  1  0
  8  3  1  0
 17 12  1  0
  1 24  1  0
  1 25  1  0
  1 26  1  0
  3 27  1  1
  4 28  1  6
  5 29  1  1
  6 30  1  6
  7 31  1  0
 13 32  1  0
 17 33  1  0
 18 34  1  0
 19 35  1  0
 20 36  1  0
 21 37  1  0
 22 38  1  0
 23 39  1  0
M  END
>  <PubChem_ID>  (1) 
124375

>  <Organism>  (1) 
Phyllanthus niruri

>  <NDD_prob>  (1) 
0.99479

$$$$
