Adoxosidic acid
     RDKit          3D

 49 51  0  0  0  0  0  0  0  0999 V2000
   -4.2409    1.0714   -1.2039 C   0  0  0  0  0  0  0  0  0  0  0  0
   -4.2654   -0.3689   -0.6965 C   0  0  0  0  0  0  0  0  0  0  0  0
   -2.8149   -0.7309   -0.3091 C   0  0  1  0  0  0  0  0  0  0  0  0
   -1.9796    0.4836   -0.7727 C   0  0  1  0  0  0  0  0  0  0  0  0
   -2.9587    1.6622   -0.6265 C   0  0  1  0  0  0  0  0  0  0  0  0
   -2.5328    2.9321   -1.3511 C   0  0  0  0  0  0  0  0  0  0  0  0
   -1.4241    3.5405   -0.7024 O   0  0  0  0  0  0  0  0  0  0  0  0
   -0.6807    0.5937    0.0281 C   0  0  1  0  0  0  0  0  0  0  0  0
   -0.9174    0.6764    1.4422 O   0  0  0  0  0  0  0  0  0  0  0  0
   -1.7897   -0.2698    1.9159 C   0  0  0  0  0  0  0  0  0  0  0  0
   -2.6511   -0.9732    1.1686 C   0  0  0  0  0  0  0  0  0  0  0  0
   -3.4994   -2.0719    1.8407 C   0  0  0  0  0  0  0  0  0  0  0  0
   -3.6936   -1.9341    3.0808 O   0  0  0  0  0  0  0  0  0  0  0  0
   -3.8921   -2.9845    1.0602 O   0  0  0  0  0  0  0  0  0  0  0  0
    0.1391   -0.5331   -0.3156 O   0  0  0  0  0  0  0  0  0  0  0  0
    1.4322   -0.4647    0.2739 C   0  0  1  0  0  0  0  0  0  0  0  0
    1.9907   -1.8993    0.2417 C   0  0  1  0  0  0  0  0  0  0  0  0
    3.4284   -1.8998    0.7507 C   0  0  2  0  0  0  0  0  0  0  0  0
    4.2762   -0.8898   -0.0226 C   0  0  1  0  0  0  0  0  0  0  0  0
    3.6044    0.4872    0.0302 C   0  0  2  0  0  0  0  0  0  0  0  0
    2.2618    0.4179   -0.4865 O   0  0  0  0  0  0  0  0  0  0  0  0
    4.3667    1.5107   -0.8174 C   0  0  0  0  0  0  0  0  0  0  0  0
    3.7031    2.7764   -0.7609 O   0  0  0  0  0  0  0  0  0  0  0  0
    5.5910   -0.8543    0.5377 O   0  0  0  0  0  0  0  0  0  0  0  0
    4.0106   -3.2074    0.6111 O   0  0  0  0  0  0  0  0  0  0  0  0
    1.2299   -2.7989    1.0614 O   0  0  0  0  0  0  0  0  0  0  0  0
   -5.1300    1.6283   -0.8914 H   0  0  0  0  0  0  0  0  0  0  0  0
   -4.2146    1.0755   -2.3008 H   0  0  0  0  0  0  0  0  0  0  0  0
   -4.6377   -1.0377   -1.4809 H   0  0  0  0  0  0  0  0  0  0  0  0
   -4.9581   -0.4512    0.1488 H   0  0  0  0  0  0  0  0  0  0  0  0
   -2.4906   -1.6299   -0.8483 H   0  0  0  0  0  0  0  0  0  0  0  0
   -1.7336    0.3416   -1.8353 H   0  0  0  0  0  0  0  0  0  0  0  0
   -3.1124    1.8942    0.4356 H   0  0  0  0  0  0  0  0  0  0  0  0
   -3.3505    3.6604   -1.3675 H   0  0  0  0  0  0  0  0  0  0  0  0
   -2.2477    2.7258   -2.3878 H   0  0  0  0  0  0  0  0  0  0  0  0
   -1.6622    3.6462    0.2368 H   0  0  0  0  0  0  0  0  0  0  0  0
   -0.1400    1.4980   -0.2659 H   0  0  0  0  0  0  0  0  0  0  0  0
   -1.7075   -0.3800    2.9915 H   0  0  0  0  0  0  0  0  0  0  0  0
    1.3649   -0.1193    1.3133 H   0  0  0  0  0  0  0  0  0  0  0  0
    1.9539   -2.3033   -0.7777 H   0  0  0  0  0  0  0  0  0  0  0  0
    3.4581   -1.6798    1.8254 H   0  0  0  0  0  0  0  0  0  0  0  0
    4.3778   -1.2261   -1.0622 H   0  0  0  0  0  0  0  0  0  0  0  0
    3.5585    0.8655    1.0600 H   0  0  0  0  0  0  0  0  0  0  0  0
    4.3949    1.2080   -1.8694 H   0  0  0  0  0  0  0  0  0  0  0  0
    5.3915    1.6489   -0.4613 H   0  0  0  0  0  0  0  0  0  0  0  0
    2.7575    2.5823   -0.9179 H   0  0  0  0  0  0  0  0  0  0  0  0
    5.8350   -1.7948    0.6625 H   0  0  0  0  0  0  0  0  0  0  0  0
    3.3152   -3.8174    0.9381 H   0  0  0  0  0  0  0  0  0  0  0  0
    0.2838   -2.6071    0.8763 H   0  0  0  0  0  0  0  0  0  0  0  0
  1  2  1  0
  2  3  1  0
  3  4  1  0
  4  5  1  0
  5  6  1  0
  6  7  1  0
  4  8  1  0
  8  9  1  0
  9 10  1  0
 10 11  2  0
 11 12  1  0
 12 13  2  0
 12 14  1  0
  8 15  1  0
 15 16  1  0
 16 17  1  0
 17 18  1  0
 18 19  1  0
 19 20  1  0
 20 21  1  0
 20 22  1  0
 22 23  1  0
 19 24  1  0
 18 25  1  0
 17 26  1  0
  5  1  1  0
 11  3  1  0
 21 16  1  0
  1 27  1  0
  1 28  1  0
  2 29  1  0
  2 30  1  0
  3 31  1  6
  4 32  1  6
  5 33  1  1
  6 34  1  0
  6 35  1  0
  7 36  1  0
  8 37  1  6
 10 38  1  0
 16 39  1  1
 17 40  1  6
 18 41  1  1
 19 42  1  6
 20 43  1  1
 22 44  1  0
 22 45  1  0
 23 46  1  0
 24 47  1  0
 25 48  1  0
 26 49  1  0
M  CHG  1  14  -1
M  END
>  <PubChem_ID>  (1) 
13892717

>  <Organism>  (1) 
Forsythia suspensa

>  <NDD_prob>  (1) 
0.99371

$$$$
