Gingerglycolipid C
     RDKit          3D

107108  0  0  0  0  0  0  0  0999 V2000
    5.1415   -5.2913   -2.1332 C   0  0  0  0  0  0  0  0  0  0  0  0
    5.8606   -3.9530   -2.0569 C   0  0  0  0  0  0  0  0  0  0  0  0
    5.3094   -2.9663   -3.0865 C   0  0  0  0  0  0  0  0  0  0  0  0
    6.0488   -1.6246   -3.1080 C   0  0  0  0  0  0  0  0  0  0  0  0
    5.9308   -0.8535   -1.7919 C   0  0  0  0  0  0  0  0  0  0  0  0
    6.4593    0.5767   -1.9243 C   0  0  0  0  0  0  0  0  0  0  0  0
    6.4958    1.3394   -0.5944 C   0  0  0  0  0  0  0  0  0  0  0  0
    5.1308    1.4289    0.0916 C   0  0  0  0  0  0  0  0  0  0  0  0
    5.1822    2.2884    1.3245 C   0  0  0  0  0  0  0  0  0  0  0  0
    4.4683    3.3998    1.5664 C   0  0  0  0  0  0  0  0  0  0  0  0
    3.5051    4.0741    0.6310 C   0  0  0  0  0  0  0  0  0  0  0  0
    2.0567    3.6944    0.9432 C   0  0  0  0  0  0  0  0  0  0  0  0
    1.0911    4.3810   -0.0242 C   0  0  0  0  0  0  0  0  0  0  0  0
   -0.3642    4.0112    0.2691 C   0  0  0  0  0  0  0  0  0  0  0  0
   -1.3095    4.6938   -0.7210 C   0  0  0  0  0  0  0  0  0  0  0  0
   -2.7727    4.3493   -0.4412 C   0  0  0  0  0  0  0  0  0  0  0  0
   -3.6925    5.0229   -1.4555 C   0  0  0  0  0  0  0  0  0  0  0  0
   -5.1492    4.7750   -1.1590 C   0  0  0  0  0  0  0  0  0  0  0  0
   -5.9603    5.6604   -0.9240 O   0  0  0  0  0  0  0  0  0  0  0  0
   -5.4352    3.4481   -1.2231 O   0  0  0  0  0  0  0  0  0  0  0  0
   -6.8338    3.1362   -1.1056 C   0  0  0  0  0  0  0  0  0  0  0  0
   -7.0359    1.6201   -1.0930 C   0  0  2  0  0  0  0  0  0  0  0  0
   -6.2486    0.9372    0.0297 C   0  0  0  0  0  0  0  0  0  0  0  0
   -6.5502   -0.4626   -0.0236 O   0  0  0  0  0  0  0  0  0  0  0  0
   -6.0410   -1.1725    1.1126 C   0  0  1  0  0  0  0  0  0  0  0  0
   -6.5521   -2.6275    1.0379 C   0  0  1  0  0  0  0  0  0  0  0  0
   -5.8782   -3.4932    2.1081 C   0  0  2  0  0  0  0  0  0  0  0  0
   -4.3597   -3.3240    2.0839 C   0  0  2  0  0  0  0  0  0  0  0  0
   -4.0233   -1.8277    2.2080 C   0  0  2  0  0  0  0  0  0  0  0  0
   -4.6120   -1.1103    1.1123 O   0  0  0  0  0  0  0  0  0  0  0  0
   -2.5115   -1.5498    2.2082 C   0  0  0  0  0  0  0  0  0  0  0  0
   -1.8720   -2.1971    1.0990 O   0  0  0  0  0  0  0  0  0  0  0  0
   -0.4849   -1.8257    1.0012 C   0  0  2  0  0  0  0  0  0  0  0  0
    0.0906   -2.5257   -0.2480 C   0  0  1  0  0  0  0  0  0  0  0  0
    1.5817   -2.2279   -0.3710 C   0  0  2  0  0  0  0  0  0  0  0  0
    2.3190   -2.5619    0.9337 C   0  0  2  0  0  0  0  0  0  0  0  0
    1.6050   -1.9682    2.1739 C   0  0  2  0  0  0  0  0  0  0  0  0
    0.2001   -2.2526    2.1807 O   0  0  0  0  0  0  0  0  0  0  0  0
    1.8778   -0.4759    2.4326 C   0  0  0  0  0  0  0  0  0  0  0  0
    3.2715   -0.2597    2.6405 O   0  0  0  0  0  0  0  0  0  0  0  0
    3.6835   -2.1400    0.7993 O   0  0  0  0  0  0  0  0  0  0  0  0
    1.7879   -0.8454   -0.6944 O   0  0  0  0  0  0  0  0  0  0  0  0
   -0.0965   -3.9494   -0.1597 O   0  0  0  0  0  0  0  0  0  0  0  0
   -3.8992   -3.8994    0.8484 O   0  0  0  0  0  0  0  0  0  0  0  0
   -6.2246   -4.8683    1.8752 O   0  0  0  0  0  0  0  0  0  0  0  0
   -7.9751   -2.6886    1.2458 O   0  0  0  0  0  0  0  0  0  0  0  0
   -6.6362    1.0625   -2.3538 O   0  0  0  0  0  0  0  0  0  0  0  0
    5.2616   -5.7462   -3.1216 H   0  0  0  0  0  0  0  0  0  0  0  0
    5.5488   -5.9831   -1.3892 H   0  0  0  0  0  0  0  0  0  0  0  0
    4.0711   -5.1723   -1.9364 H   0  0  0  0  0  0  0  0  0  0  0  0
    5.7440   -3.5535   -1.0440 H   0  0  0  0  0  0  0  0  0  0  0  0
    6.9322   -4.1086   -2.2264 H   0  0  0  0  0  0  0  0  0  0  0  0
    5.3792   -3.4125   -4.0863 H   0  0  0  0  0  0  0  0  0  0  0  0
    4.2435   -2.7913   -2.8942 H   0  0  0  0  0  0  0  0  0  0  0  0
    7.1067   -1.7882   -3.3464 H   0  0  0  0  0  0  0  0  0  0  0  0
    5.6305   -1.0192   -3.9217 H   0  0  0  0  0  0  0  0  0  0  0  0
    6.4867   -1.3729   -1.0034 H   0  0  0  0  0  0  0  0  0  0  0  0
    4.8784   -0.8290   -1.4927 H   0  0  0  0  0  0  0  0  0  0  0  0
    5.8393    1.1293   -2.6408 H   0  0  0  0  0  0  0  0  0  0  0  0
    7.4754    0.5541   -2.3370 H   0  0  0  0  0  0  0  0  0  0  0  0
    7.2150    0.8554    0.0788 H   0  0  0  0  0  0  0  0  0  0  0  0
    6.8784    2.3496   -0.7883 H   0  0  0  0  0  0  0  0  0  0  0  0
    4.3802    1.7831   -0.6214 H   0  0  0  0  0  0  0  0  0  0  0  0
    4.8116    0.4302    0.4065 H   0  0  0  0  0  0  0  0  0  0  0  0
    5.8591    1.9390    2.1045 H   0  0  0  0  0  0  0  0  0  0  0  0
    4.6083    3.8966    2.5262 H   0  0  0  0  0  0  0  0  0  0  0  0
    3.7402    3.8426   -0.4134 H   0  0  0  0  0  0  0  0  0  0  0  0
    3.6345    5.1590    0.7310 H   0  0  0  0  0  0  0  0  0  0  0  0
    1.8102    3.9775    1.9742 H   0  0  0  0  0  0  0  0  0  0  0  0
    1.9338    2.6066    0.8698 H   0  0  0  0  0  0  0  0  0  0  0  0
    1.3405    4.0945   -1.0533 H   0  0  0  0  0  0  0  0  0  0  0  0
    1.2139    5.4687    0.0463 H   0  0  0  0  0  0  0  0  0  0  0  0
   -0.6217    4.3102    1.2923 H   0  0  0  0  0  0  0  0  0  0  0  0
   -0.4887    2.9233    0.2074 H   0  0  0  0  0  0  0  0  0  0  0  0
   -1.1734    5.7810   -0.6667 H   0  0  0  0  0  0  0  0  0  0  0  0
   -1.0510    4.3878   -1.7423 H   0  0  0  0  0  0  0  0  0  0  0  0
   -2.9085    3.2615   -0.4763 H   0  0  0  0  0  0  0  0  0  0  0  0
   -3.0442    4.6674    0.5730 H   0  0  0  0  0  0  0  0  0  0  0  0
   -3.4844    4.6768   -2.4743 H   0  0  0  0  0  0  0  0  0  0  0  0
   -3.5305    6.1074   -1.4453 H   0  0  0  0  0  0  0  0  0  0  0  0
   -7.2305    3.5675   -0.1790 H   0  0  0  0  0  0  0  0  0  0  0  0
   -7.3549    3.5682   -1.9680 H   0  0  0  0  0  0  0  0  0  0  0  0
   -8.1032    1.3962   -0.9835 H   0  0  0  0  0  0  0  0  0  0  0  0
   -6.5400    1.3509    1.0015 H   0  0  0  0  0  0  0  0  0  0  0  0
   -5.1710    1.0643   -0.1204 H   0  0  0  0  0  0  0  0  0  0  0  0
   -6.4324   -0.6928    2.0197 H   0  0  0  0  0  0  0  0  0  0  0  0
   -6.3687   -3.0385    0.0374 H   0  0  0  0  0  0  0  0  0  0  0  0
   -6.2746   -3.2346    3.0972 H   0  0  0  0  0  0  0  0  0  0  0  0
   -3.8983   -3.9005    2.8927 H   0  0  0  0  0  0  0  0  0  0  0  0
   -4.4352   -1.4221    3.1414 H   0  0  0  0  0  0  0  0  0  0  0  0
   -2.0793   -1.9281    3.1411 H   0  0  0  0  0  0  0  0  0  0  0  0
   -2.3404   -0.4690    2.1403 H   0  0  0  0  0  0  0  0  0  0  0  0
   -0.4236   -0.7363    0.8941 H   0  0  0  0  0  0  0  0  0  0  0  0
   -0.4528   -2.1832   -1.1358 H   0  0  0  0  0  0  0  0  0  0  0  0
    2.0197   -2.8123   -1.1893 H   0  0  0  0  0  0  0  0  0  0  0  0
    2.3285   -3.6533    1.0445 H   0  0  0  0  0  0  0  0  0  0  0  0
    2.0240   -2.4965    3.0408 H   0  0  0  0  0  0  0  0  0  0  0  0
    1.5455    0.1549    1.6047 H   0  0  0  0  0  0  0  0  0  0  0  0
    1.3368   -0.1475    3.3267 H   0  0  0  0  0  0  0  0  0  0  0  0
    3.3914    0.7036    2.7512 H   0  0  0  0  0  0  0  0  0  0  0  0
    3.9086   -1.6026    1.5903 H   0  0  0  0  0  0  0  0  0  0  0  0
    2.7621   -0.7435   -0.6973 H   0  0  0  0  0  0  0  0  0  0  0  0
   -0.9614   -4.0836    0.2732 H   0  0  0  0  0  0  0  0  0  0  0  0
   -3.1794   -3.3168    0.5243 H   0  0  0  0  0  0  0  0  0  0  0  0
   -5.5828   -5.1802    1.2015 H   0  0  0  0  0  0  0  0  0  0  0  0
   -8.1867   -3.6424    1.2866 H   0  0  0  0  0  0  0  0  0  0  0  0
   -6.6015    0.0967   -2.2040 H   0  0  0  0  0  0  0  0  0  0  0  0
  1  2  1  0
  2  3  1  0
  3  4  1  0
  4  5  1  0
  5  6  1  0
  6  7  1  0
  7  8  1  0
  8  9  1  0
  9 10  2  0
 10 11  1  0
 11 12  1  0
 12 13  1  0
 13 14  1  0
 14 15  1  0
 15 16  1  0
 16 17  1  0
 17 18  1  0
 18 19  2  0
 18 20  1  0
 20 21  1  0
 21 22  1  0
 22 23  1  0
 23 24  1  0
 24 25  1  0
 25 26  1  0
 26 27  1  0
 27 28  1  0
 28 29  1  0
 29 30  1  0
 29 31  1  0
 31 32  1  0
 32 33  1  0
 33 34  1  0
 34 35  1  0
 35 36  1  0
 36 37  1  0
 37 38  1  0
 37 39  1  0
 39 40  1  0
 36 41  1  0
 35 42  1  0
 34 43  1  0
 28 44  1  0
 27 45  1  0
 26 46  1  0
 22 47  1  0
 30 25  1  0
 38 33  1  0
  1 48  1  0
  1 49  1  0
  1 50  1  0
  2 51  1  0
  2 52  1  0
  3 53  1  0
  3 54  1  0
  4 55  1  0
  4 56  1  0
  5 57  1  0
  5 58  1  0
  6 59  1  0
  6 60  1  0
  7 61  1  0
  7 62  1  0
  8 63  1  0
  8 64  1  0
  9 65  1  0
 10 66  1  0
 11 67  1  0
 11 68  1  0
 12 69  1  0
 12 70  1  0
 13 71  1  0
 13 72  1  0
 14 73  1  0
 14 74  1  0
 15 75  1  0
 15 76  1  0
 16 77  1  0
 16 78  1  0
 17 79  1  0
 17 80  1  0
 21 81  1  0
 21 82  1  0
 22 83  1  1
 23 84  1  0
 23 85  1  0
 25 86  1  1
 26 87  1  6
 27 88  1  1
 28 89  1  1
 29 90  1  1
 31 91  1  0
 31 92  1  0
 33 93  1  6
 34 94  1  6
 35 95  1  6
 36 96  1  1
 37 97  1  1
 39 98  1  0
 39 99  1  0
 40100  1  0
 41101  1  0
 42102  1  0
 43103  1  0
 44104  1  0
 45105  1  0
 46106  1  0
 47107  1  0
M  END
>  <PubChem_ID>  (1) 
10259020

>  <Organism>  (1) 
Zingiber officinale

>  <NDD_prob>  (1) 
0.98475

$$$$
