Gingerglycolipid B
     RDKit          3D

105106  0  0  0  0  0  0  0  0999 V2000
   14.6928    1.7664   -2.5156 C   0  0  0  0  0  0  0  0  0  0  0  0
   13.9199    0.7527   -1.6862 C   0  0  0  0  0  0  0  0  0  0  0  0
   13.1008    1.3832   -0.5579 C   0  0  0  0  0  0  0  0  0  0  0  0
   11.9617    2.2741   -1.0597 C   0  0  0  0  0  0  0  0  0  0  0  0
   11.1111    2.7907    0.1029 C   0  0  0  0  0  0  0  0  0  0  0  0
   10.0085    3.6865   -0.3858 C   0  0  0  0  0  0  0  0  0  0  0  0
    8.6939    3.4127   -0.4275 C   0  0  0  0  0  0  0  0  0  0  0  0
    8.0085    2.1332   -0.0436 C   0  0  0  0  0  0  0  0  0  0  0  0
    7.1991    2.3120    1.2082 C   0  0  0  0  0  0  0  0  0  0  0  0
    5.8616    2.2939    1.3349 C   0  0  0  0  0  0  0  0  0  0  0  0
    4.8407    2.1356    0.2434 C   0  0  0  0  0  0  0  0  0  0  0  0
    4.0709    0.8138    0.3346 C   0  0  0  0  0  0  0  0  0  0  0  0
    4.9513   -0.4090    0.0539 C   0  0  0  0  0  0  0  0  0  0  0  0
    4.1566   -1.7161   -0.0390 C   0  0  0  0  0  0  0  0  0  0  0  0
    3.5027   -2.1194    1.2850 C   0  0  0  0  0  0  0  0  0  0  0  0
    2.8782   -3.5199    1.2527 C   0  0  0  0  0  0  0  0  0  0  0  0
    1.7539   -3.6981    0.2357 C   0  0  0  0  0  0  0  0  0  0  0  0
    0.5973   -2.7627    0.4792 C   0  0  0  0  0  0  0  0  0  0  0  0
    0.2824   -1.8513   -0.2735 O   0  0  0  0  0  0  0  0  0  0  0  0
   -0.0509   -3.0921    1.6281 O   0  0  0  0  0  0  0  0  0  0  0  0
   -1.1144   -2.2158    2.0348 C   0  0  0  0  0  0  0  0  0  0  0  0
   -2.4957   -2.7867    1.6986 C   0  0  2  0  0  0  0  0  0  0  0  0
   -2.7594   -2.8446    0.1847 C   0  0  0  0  0  0  0  0  0  0  0  0
   -3.9480   -3.6032   -0.0888 O   0  0  0  0  0  0  0  0  0  0  0  0
   -5.0689   -2.7980   -0.4691 C   0  0  1  0  0  0  0  0  0  0  0  0
   -6.1641   -3.7593   -0.9648 C   0  0  1  0  0  0  0  0  0  0  0  0
   -7.4209   -2.9643   -1.3200 C   0  0  2  0  0  0  0  0  0  0  0  0
   -7.8558   -2.0880   -0.1438 C   0  0  2  0  0  0  0  0  0  0  0  0
   -6.6707   -1.2213    0.3223 C   0  0  2  0  0  0  0  0  0  0  0  0
   -5.5279   -2.0395    0.6454 O   0  0  0  0  0  0  0  0  0  0  0  0
   -7.0173   -0.3741    1.5579 C   0  0  0  0  0  0  0  0  0  0  0  0
   -8.0538    0.5830    1.3300 O   0  0  0  0  0  0  0  0  0  0  0  0
   -7.6636    1.6573    0.4702 C   0  0  2  0  0  0  0  0  0  0  0  0
   -8.1694    3.0084    1.0121 C   0  0  1  0  0  0  0  0  0  0  0  0
   -9.6998    3.0368    1.0012 C   0  0  2  0  0  0  0  0  0  0  0  0
  -10.2201    2.7071   -0.4008 C   0  0  2  0  0  0  0  0  0  0  0  0
   -9.6153    1.3735   -0.8851 C   0  0  2  0  0  0  0  0  0  0  0  0
   -8.1696    1.4083   -0.8508 O   0  0  0  0  0  0  0  0  0  0  0  0
  -10.0205    1.0404   -2.3249 C   0  0  0  0  0  0  0  0  0  0  0  0
   -9.5378    2.0453   -3.2195 O   0  0  0  0  0  0  0  0  0  0  0  0
   -9.8621    3.8165   -1.2478 O   0  0  0  0  0  0  0  0  0  0  0  0
  -10.1348    4.3529    1.3885 O   0  0  0  0  0  0  0  0  0  0  0  0
   -7.6823    3.2729    2.3345 O   0  0  0  0  0  0  0  0  0  0  0  0
   -8.3120   -2.9459    0.9116 O   0  0  0  0  0  0  0  0  0  0  0  0
   -8.4872   -3.8674   -1.6554 O   0  0  0  0  0  0  0  0  0  0  0  0
   -5.7370   -4.4848   -2.1306 O   0  0  0  0  0  0  0  0  0  0  0  0
   -3.4729   -1.9611    2.3430 O   0  0  0  0  0  0  0  0  0  0  0  0
   14.0208    2.4215   -3.0775 H   0  0  0  0  0  0  0  0  0  0  0  0
   15.3328    2.3876   -1.8812 H   0  0  0  0  0  0  0  0  0  0  0  0
   15.3321    1.2500   -3.2390 H   0  0  0  0  0  0  0  0  0  0  0  0
   13.2641    0.1686   -2.3422 H   0  0  0  0  0  0  0  0  0  0  0  0
   14.6343    0.0481   -1.2440 H   0  0  0  0  0  0  0  0  0  0  0  0
   13.7626    1.9626    0.0975 H   0  0  0  0  0  0  0  0  0  0  0  0
   12.6808    0.5742    0.0527 H   0  0  0  0  0  0  0  0  0  0  0  0
   12.3701    3.1253   -1.6171 H   0  0  0  0  0  0  0  0  0  0  0  0
   11.3311    1.7052   -1.7546 H   0  0  0  0  0  0  0  0  0  0  0  0
   10.7190    1.9492    0.6829 H   0  0  0  0  0  0  0  0  0  0  0  0
   11.7389    3.3678    0.7930 H   0  0  0  0  0  0  0  0  0  0  0  0
   10.3289    4.6721   -0.7230 H   0  0  0  0  0  0  0  0  0  0  0  0
    8.0279    4.1925   -0.7968 H   0  0  0  0  0  0  0  0  0  0  0  0
    8.7234    1.3207    0.1205 H   0  0  0  0  0  0  0  0  0  0  0  0
    7.3916    1.8070   -0.8867 H   0  0  0  0  0  0  0  0  0  0  0  0
    7.7884    2.4565    2.1136 H   0  0  0  0  0  0  0  0  0  0  0  0
    5.4495    2.4285    2.3349 H   0  0  0  0  0  0  0  0  0  0  0  0
    5.2839    2.2378   -0.7520 H   0  0  0  0  0  0  0  0  0  0  0  0
    4.1257    2.9627    0.3370 H   0  0  0  0  0  0  0  0  0  0  0  0
    3.6106    0.7290    1.3260 H   0  0  0  0  0  0  0  0  0  0  0  0
    3.2517    0.8416   -0.3945 H   0  0  0  0  0  0  0  0  0  0  0  0
    5.7210   -0.5086    0.8281 H   0  0  0  0  0  0  0  0  0  0  0  0
    5.4763   -0.2610   -0.8979 H   0  0  0  0  0  0  0  0  0  0  0  0
    4.8414   -2.5115   -0.3578 H   0  0  0  0  0  0  0  0  0  0  0  0
    3.3973   -1.6169   -0.8227 H   0  0  0  0  0  0  0  0  0  0  0  0
    2.7388   -1.3871    1.5684 H   0  0  0  0  0  0  0  0  0  0  0  0
    4.2601   -2.1036    2.0785 H   0  0  0  0  0  0  0  0  0  0  0  0
    2.4995   -3.7482    2.2568 H   0  0  0  0  0  0  0  0  0  0  0  0
    3.6623   -4.2574    1.0422 H   0  0  0  0  0  0  0  0  0  0  0  0
    2.1179   -3.5425   -0.7855 H   0  0  0  0  0  0  0  0  0  0  0  0
    1.3721   -4.7254    0.2678 H   0  0  0  0  0  0  0  0  0  0  0  0
   -0.9957   -1.2016    1.6324 H   0  0  0  0  0  0  0  0  0  0  0  0
   -1.0281   -2.1040    3.1223 H   0  0  0  0  0  0  0  0  0  0  0  0
   -2.5944   -3.7949    2.1172 H   0  0  0  0  0  0  0  0  0  0  0  0
   -2.8232   -1.8385   -0.2460 H   0  0  0  0  0  0  0  0  0  0  0  0
   -1.9513   -3.3823   -0.3177 H   0  0  0  0  0  0  0  0  0  0  0  0
   -4.7591   -2.1333   -1.2867 H   0  0  0  0  0  0  0  0  0  0  0  0
   -6.3931   -4.5124   -0.2007 H   0  0  0  0  0  0  0  0  0  0  0  0
   -7.2383   -2.3458   -2.2071 H   0  0  0  0  0  0  0  0  0  0  0  0
   -8.7102   -1.4703   -0.4346 H   0  0  0  0  0  0  0  0  0  0  0  0
   -6.3776   -0.5544   -0.4977 H   0  0  0  0  0  0  0  0  0  0  0  0
   -6.1226    0.1350    1.9390 H   0  0  0  0  0  0  0  0  0  0  0  0
   -7.3461   -1.0248    2.3762 H   0  0  0  0  0  0  0  0  0  0  0  0
   -6.5701    1.7121    0.4050 H   0  0  0  0  0  0  0  0  0  0  0  0
   -7.7876    3.8172    0.3768 H   0  0  0  0  0  0  0  0  0  0  0  0
  -10.1014    2.3393    1.7447 H   0  0  0  0  0  0  0  0  0  0  0  0
  -11.3146    2.6611   -0.3961 H   0  0  0  0  0  0  0  0  0  0  0  0
   -9.9676    0.5589   -0.2411 H   0  0  0  0  0  0  0  0  0  0  0  0
   -9.5884    0.0848   -2.6395 H   0  0  0  0  0  0  0  0  0  0  0  0
  -11.1084    0.9850   -2.4258 H   0  0  0  0  0  0  0  0  0  0  0  0
   -8.5639    2.0346   -3.1205 H   0  0  0  0  0  0  0  0  0  0  0  0
   -9.9623    3.5125   -2.1769 H   0  0  0  0  0  0  0  0  0  0  0  0
  -10.0986    4.8824    0.5635 H   0  0  0  0  0  0  0  0  0  0  0  0
   -8.2759    3.9615    2.6954 H   0  0  0  0  0  0  0  0  0  0  0  0
   -8.9164   -3.5845    0.4803 H   0  0  0  0  0  0  0  0  0  0  0  0
   -8.0871   -4.5143   -2.2726 H   0  0  0  0  0  0  0  0  0  0  0  0
   -4.8890   -4.9006   -1.8744 H   0  0  0  0  0  0  0  0  0  0  0  0
   -4.3432   -2.2037    1.9613 H   0  0  0  0  0  0  0  0  0  0  0  0
  1  2  1  0
  2  3  1  0
  3  4  1  0
  4  5  1  0
  5  6  1  0
  6  7  2  0
  7  8  1  0
  8  9  1  0
  9 10  2  0
 10 11  1  0
 11 12  1  0
 12 13  1  0
 13 14  1  0
 14 15  1  0
 15 16  1  0
 16 17  1  0
 17 18  1  0
 18 19  2  0
 18 20  1  0
 20 21  1  0
 21 22  1  0
 22 23  1  0
 23 24  1  0
 24 25  1  0
 25 26  1  0
 26 27  1  0
 27 28  1  0
 28 29  1  0
 29 30  1  0
 29 31  1  0
 31 32  1  0
 32 33  1  0
 33 34  1  0
 34 35  1  0
 35 36  1  0
 36 37  1  0
 37 38  1  0
 37 39  1  0
 39 40  1  0
 36 41  1  0
 35 42  1  0
 34 43  1  0
 28 44  1  0
 27 45  1  0
 26 46  1  0
 22 47  1  0
 30 25  1  0
 38 33  1  0
  1 48  1  0
  1 49  1  0
  1 50  1  0
  2 51  1  0
  2 52  1  0
  3 53  1  0
  3 54  1  0
  4 55  1  0
  4 56  1  0
  5 57  1  0
  5 58  1  0
  6 59  1  0
  7 60  1  0
  8 61  1  0
  8 62  1  0
  9 63  1  0
 10 64  1  0
 11 65  1  0
 11 66  1  0
 12 67  1  0
 12 68  1  0
 13 69  1  0
 13 70  1  0
 14 71  1  0
 14 72  1  0
 15 73  1  0
 15 74  1  0
 16 75  1  0
 16 76  1  0
 17 77  1  0
 17 78  1  0
 21 79  1  0
 21 80  1  0
 22 81  1  1
 23 82  1  0
 23 83  1  0
 25 84  1  6
 26 85  1  1
 27 86  1  6
 28 87  1  6
 29 88  1  6
 31 89  1  0
 31 90  1  0
 33 91  1  6
 34 92  1  6
 35 93  1  1
 36 94  1  1
 37 95  1  1
 39 96  1  0
 39 97  1  0
 40 98  1  0
 41 99  1  0
 42100  1  0
 43101  1  0
 44102  1  0
 45103  1  0
 46104  1  0
 47105  1  0
M  END
>  <PubChem_ID>  (1) 
10009754

>  <Organism>  (1) 
Zingiber officinale

>  <NDD_prob>  (1) 
0.98463

$$$$
