p-Coumaric acid
     RDKit          3D

 19 19  0  0  0  0  0  0  0  0999 V2000
    0.3687   -1.1238    0.4093 C   0  0  0  0  0  0  0  0  0  0  0  0
    1.7373   -1.3539    0.5777 C   0  0  0  0  0  0  0  0  0  0  0  0
    2.6408   -0.3238    0.3509 C   0  0  0  0  0  0  0  0  0  0  0  0
    2.1996    0.9338   -0.0468 C   0  0  0  0  0  0  0  0  0  0  0  0
    0.8301    1.1592   -0.2150 C   0  0  0  0  0  0  0  0  0  0  0  0
   -0.1014    0.1384    0.0227 C   0  0  0  0  0  0  0  0  0  0  0  0
   -1.5261    0.4195   -0.1975 C   0  0  0  0  0  0  0  0  0  0  0  0
   -2.5392   -0.1651    0.4609 C   0  0  0  0  0  0  0  0  0  0  0  0
   -4.0029    0.1869    0.1878 C   0  0  0  0  0  0  0  0  0  0  0  0
   -4.8234   -0.4880    0.8734 O   0  0  0  0  0  0  0  0  0  0  0  0
   -4.2163    1.0891   -0.6685 O   0  0  0  0  0  0  0  0  0  0  0  0
    3.9684   -0.5859    0.5259 O   0  0  0  0  0  0  0  0  0  0  0  0
   -0.3297   -1.9407    0.5736 H   0  0  0  0  0  0  0  0  0  0  0  0
    2.0892   -2.3348    0.8808 H   0  0  0  0  0  0  0  0  0  0  0  0
    2.8933    1.7465   -0.2313 H   0  0  0  0  0  0  0  0  0  0  0  0
    0.4853    2.1432   -0.5256 H   0  0  0  0  0  0  0  0  0  0  0  0
   -1.7595    1.1776   -0.9443 H   0  0  0  0  0  0  0  0  0  0  0  0
   -2.3738   -0.9089    1.2326 H   0  0  0  0  0  0  0  0  0  0  0  0
    4.4597    0.2307    0.3426 H   0  0  0  0  0  0  0  0  0  0  0  0
  1  2  2  0
  2  3  1  0
  3  4  2  0
  4  5  1  0
  5  6  2  0
  6  7  1  0
  7  8  2  0
  8  9  1  0
  9 10  2  0
  9 11  1  0
  3 12  1  0
  6  1  1  0
  1 13  1  0
  2 14  1  0
  4 15  1  0
  5 16  1  0
  7 17  1  0
  8 18  1  0
 12 19  1  0
M  CHG  1  11  -1
M  END
>  <PubChem_ID>  (1) 
637542

>  <Organism>  (1) 
Melissa officinalis

>  <NDD_prob>  (1) 
0.98195

$$$$
