Caffeic acid
     RDKit          3D

 20 20  0  0  0  0  0  0  0  0999 V2000
    0.6242   -1.3817   -0.0855 C   0  0  0  0  0  0  0  0  0  0  0  0
    1.9580   -1.2026    0.2955 C   0  0  0  0  0  0  0  0  0  0  0  0
    2.4272    0.0849    0.5170 C   0  0  0  0  0  0  0  0  0  0  0  0
    1.5809    1.1797    0.3577 C   0  0  0  0  0  0  0  0  0  0  0  0
    0.2544    1.0074   -0.0188 C   0  0  0  0  0  0  0  0  0  0  0  0
   -0.2430   -0.2850   -0.2346 C   0  0  0  0  0  0  0  0  0  0  0  0
   -1.6239   -0.5437   -0.6636 C   0  0  0  0  0  0  0  0  0  0  0  0
   -2.6895    0.2030   -0.3346 C   0  0  0  0  0  0  0  0  0  0  0  0
   -4.1037   -0.1468   -0.8033 C   0  0  0  0  0  0  0  0  0  0  0  0
   -4.2252   -1.1960   -1.4949 O   0  0  0  0  0  0  0  0  0  0  0  0
   -4.9842    0.6771   -0.4235 O   0  0  0  0  0  0  0  0  0  0  0  0
    2.0626    2.4417    0.5703 O   0  0  0  0  0  0  0  0  0  0  0  0
    3.7219    0.3256    0.8908 O   0  0  0  0  0  0  0  0  0  0  0  0
    0.2508   -2.3893   -0.2595 H   0  0  0  0  0  0  0  0  0  0  0  0
    2.5966   -2.0712    0.4087 H   0  0  0  0  0  0  0  0  0  0  0  0
   -0.3825    1.8770   -0.1506 H   0  0  0  0  0  0  0  0  0  0  0  0
   -1.7805   -1.4289   -1.2792 H   0  0  0  0  0  0  0  0  0  0  0  0
   -2.6064    1.0831    0.2938 H   0  0  0  0  0  0  0  0  0  0  0  0
    2.9954    2.3010    0.8225 H   0  0  0  0  0  0  0  0  0  0  0  0
    4.1668   -0.5354    0.9664 H   0  0  0  0  0  0  0  0  0  0  0  0
  1  2  2  0
  2  3  1  0
  3  4  2  0
  4  5  1  0
  5  6  2  0
  6  7  1  0
  7  8  2  0
  8  9  1  0
  9 10  2  0
  9 11  1  0
  4 12  1  0
  3 13  1  0
  6  1  1  0
  1 14  1  0
  2 15  1  0
  5 16  1  0
  7 17  1  0
  8 18  1  0
 12 19  1  0
 13 20  1  0
M  CHG  1  11  -1
M  END
>  <PubChem_ID>  (1) 
689043

>  <Organism>  (1) 
Andrographis paniculata

>  <NDD_prob>  (1) 
0.97830

$$$$
