(+)-Ascorbic acid
     RDKit          3D

 19 19  0  0  0  0  0  0  0  0999 V2000
   -1.5354    0.1112   -0.8540 C   0  0  0  0  0  0  0  0  0  0  0  0
   -1.2598   -0.3715    0.5746 C   0  0  1  0  0  0  0  0  0  0  0  0
    0.2296   -0.6706    0.8663 C   0  0  2  0  0  0  0  0  0  0  0  0
    1.1744    0.4833    0.6467 C   0  0  0  0  0  0  0  0  0  0  0  0
    2.0964    0.0965   -0.2341 C   0  0  0  0  0  0  0  0  0  0  0  0
    1.8284   -1.2862   -0.6554 C   0  0  0  0  0  0  0  0  0  0  0  0
    2.4668   -1.9536   -1.4521 O   0  0  0  0  0  0  0  0  0  0  0  0
    0.7064   -1.7155   -0.0033 O   0  0  0  0  0  0  0  0  0  0  0  0
    3.1170    0.9018   -0.6640 O   0  0  0  0  0  0  0  0  0  0  0  0
    0.9634    1.5505    1.2816 O   0  0  0  0  0  0  0  0  0  0  0  0
   -1.7823    0.6255    1.4829 O   0  0  0  0  0  0  0  0  0  0  0  0
   -2.9455    0.3490   -0.9966 O   0  0  0  0  0  0  0  0  0  0  0  0
   -1.2374   -0.6299   -1.6006 H   0  0  0  0  0  0  0  0  0  0  0  0
   -1.0356    1.0601   -1.0697 H   0  0  0  0  0  0  0  0  0  0  0  0
   -1.8499   -1.2797    0.7458 H   0  0  0  0  0  0  0  0  0  0  0  0
    0.3243   -1.0335    1.8994 H   0  0  0  0  0  0  0  0  0  0  0  0
    2.9296    1.7141   -0.1442 H   0  0  0  0  0  0  0  0  0  0  0  0
   -1.0094    1.2396    1.6052 H   0  0  0  0  0  0  0  0  0  0  0  0
   -3.1808    0.8090   -0.1640 H   0  0  0  0  0  0  0  0  0  0  0  0
  1  2  1  0
  2  3  1  0
  3  4  1  0
  4  5  2  0
  5  6  1  0
  6  7  2  0
  6  8  1  0
  5  9  1  0
  4 10  1  0
  2 11  1  0
  1 12  1  0
  8  3  1  0
  1 13  1  0
  1 14  1  0
  2 15  1  1
  3 16  1  1
  9 17  1  0
 11 18  1  0
 12 19  1  0
M  CHG  1  10  -1
M  END
>  <PubChem_ID>  (1) 
54670067

>  <Organism>  (1) 
Zingiber officinale

>  <NDD_prob>  (1) 
0.97731

$$$$
