Salvianic acid A
     RDKit          3D

 23 23  0  0  0  0  0  0  0  0999 V2000
    0.8581   -1.3338   -1.1206 C   0  0  0  0  0  0  0  0  0  0  0  0
    1.9792   -0.8528   -1.8035 C   0  0  0  0  0  0  0  0  0  0  0  0
    2.4983    0.3874   -1.4636 C   0  0  0  0  0  0  0  0  0  0  0  0
    1.9141    1.1503   -0.4569 C   0  0  0  0  0  0  0  0  0  0  0  0
    0.8077    0.6739    0.2345 C   0  0  0  0  0  0  0  0  0  0  0  0
    0.2675   -0.5784   -0.0935 C   0  0  0  0  0  0  0  0  0  0  0  0
   -0.9524   -1.0910    0.6455 C   0  0  0  0  0  0  0  0  0  0  0  0
   -2.2481   -0.4141    0.2002 C   0  0  2  0  0  0  0  0  0  0  0  0
   -2.7905    0.5522    1.2994 C   0  0  0  0  0  0  0  0  0  0  0  0
   -3.9862    0.2899    1.6447 O   0  0  0  0  0  0  0  0  0  0  0  0
   -2.0127    1.4601    1.7011 O   0  0  0  0  0  0  0  0  0  0  0  0
   -3.2511   -1.4385   -0.0589 O   0  0  0  0  0  0  0  0  0  0  0  0
    2.4534    2.3777   -0.1783 O   0  0  0  0  0  0  0  0  0  0  0  0
    3.5897    0.8690   -2.1309 O   0  0  0  0  0  0  0  0  0  0  0  0
    0.4386   -2.2992   -1.3941 H   0  0  0  0  0  0  0  0  0  0  0  0
    2.4337   -1.4374   -2.5958 H   0  0  0  0  0  0  0  0  0  0  0  0
    0.3448    1.2635    1.0228 H   0  0  0  0  0  0  0  0  0  0  0  0
   -1.0211   -2.1763    0.4935 H   0  0  0  0  0  0  0  0  0  0  0  0
   -0.7793   -0.9643    1.7222 H   0  0  0  0  0  0  0  0  0  0  0  0
   -2.1347    0.1488   -0.7328 H   0  0  0  0  0  0  0  0  0  0  0  0
   -4.0012   -1.1268    0.5088 H   0  0  0  0  0  0  0  0  0  0  0  0
    1.8544    2.7953    0.4693 H   0  0  0  0  0  0  0  0  0  0  0  0
    3.7376    1.7444   -1.7201 H   0  0  0  0  0  0  0  0  0  0  0  0
  1  2  2  0
  2  3  1  0
  3  4  2  0
  4  5  1  0
  5  6  2  0
  6  7  1  0
  7  8  1  0
  8  9  1  0
  9 10  2  0
  9 11  1  0
  8 12  1  0
  4 13  1  0
  3 14  1  0
  6  1  1  0
  1 15  1  0
  2 16  1  0
  5 17  1  0
  7 18  1  0
  7 19  1  0
  8 20  1  6
 12 21  1  0
 13 22  1  0
 14 23  1  0
M  CHG  1  11  -1
M  END
>  <PubChem_ID>  (1) 
439435

>  <Organism>  (1) 
Melissa officinalis

>  <NDD_prob>  (1) 
0.97252

$$$$
