Forsythoside D
     RDKit          3D

 63 65  0  0  0  0  0  0  0  0999 V2000
   -1.4462    2.7104   -3.6980 C   0  0  0  0  0  0  0  0  0  0  0  0
   -1.5117    2.1088   -2.2975 C   0  0  1  0  0  0  0  0  0  0  0  0
   -1.5763    3.1974   -1.2130 C   0  0  1  0  0  0  0  0  0  0  0  0
   -1.7444    2.5352    0.1621 C   0  0  2  0  0  0  0  0  0  0  0  0
   -2.9406    1.5843    0.1725 C   0  0  2  0  0  0  0  0  0  0  0  0
   -2.8322    0.5863   -0.9998 C   0  0  1  0  0  0  0  0  0  0  0  0
   -2.6700    1.2739   -2.2511 O   0  0  0  0  0  0  0  0  0  0  0  0
   -1.7516   -0.3362   -0.8329 O   0  0  0  0  0  0  0  0  0  0  0  0
   -2.0560   -1.3961    0.0820 C   0  0  0  0  0  0  0  0  0  0  0  0
   -0.9908   -2.4957   -0.0545 C   0  0  2  0  0  0  0  0  0  0  0  0
   -1.3524   -3.7058    0.8192 C   0  0  2  0  0  0  0  0  0  0  0  0
   -0.2457   -4.7561    0.7325 C   0  0  1  0  0  0  0  0  0  0  0  0
    1.1042   -4.1332    1.0661 C   0  0  2  0  0  0  0  0  0  0  0  0
    1.3464   -2.9077    0.1641 C   0  0  1  0  0  0  0  0  0  0  0  0
    0.2923   -1.9580    0.3334 O   0  0  0  0  0  0  0  0  0  0  0  0
    2.5944   -2.3499    0.5871 O   0  0  0  0  0  0  0  0  0  0  0  0
    3.2950   -1.6090   -0.4188 C   0  0  0  0  0  0  0  0  0  0  0  0
    2.7335   -0.2069   -0.7422 C   0  0  0  0  0  0  0  0  0  0  0  0
    2.5867    0.7890    0.3944 C   0  0  0  0  0  0  0  0  0  0  0  0
    2.0056    2.0406    0.1117 C   0  0  0  0  0  0  0  0  0  0  0  0
    1.8455    2.9881    1.1173 C   0  0  0  0  0  0  0  0  0  0  0  0
    2.2922    2.7237    2.4052 C   0  0  0  0  0  0  0  0  0  0  0  0
    2.8852    1.5091    2.7081 C   0  0  0  0  0  0  0  0  0  0  0  0
    3.0304    0.5436    1.7053 C   0  0  0  0  0  0  0  0  0  0  0  0
    2.1434    3.6591    3.3876 O   0  0  0  0  0  0  0  0  0  0  0  0
    1.2246    4.1851    0.8831 O   0  0  0  0  0  0  0  0  0  0  0  0
    1.4903   -0.3337   -1.4366 O   0  0  0  0  0  0  0  0  0  0  0  0
    2.1278   -5.1265    0.8935 O   0  0  0  0  0  0  0  0  0  0  0  0
   -0.5438   -5.8254    1.6440 O   0  0  0  0  0  0  0  0  0  0  0  0
   -2.5870   -4.2935    0.4056 O   0  0  0  0  0  0  0  0  0  0  0  0
   -4.1517    2.3559    0.0906 O   0  0  0  0  0  0  0  0  0  0  0  0
   -1.9514    3.5475    1.1639 O   0  0  0  0  0  0  0  0  0  0  0  0
   -0.3898    4.0167   -1.2045 O   0  0  0  0  0  0  0  0  0  0  0  0
   -0.5408    3.3072   -3.8412 H   0  0  0  0  0  0  0  0  0  0  0  0
   -2.3195    3.3424   -3.8934 H   0  0  0  0  0  0  0  0  0  0  0  0
   -1.4576    1.9169   -4.4535 H   0  0  0  0  0  0  0  0  0  0  0  0
   -0.6114    1.4962   -2.1660 H   0  0  0  0  0  0  0  0  0  0  0  0
   -2.4261    3.8699   -1.3868 H   0  0  0  0  0  0  0  0  0  0  0  0
   -0.8392    1.9865    0.4388 H   0  0  0  0  0  0  0  0  0  0  0  0
   -2.9789    1.0625    1.1340 H   0  0  0  0  0  0  0  0  0  0  0  0
   -3.7755    0.0371   -1.1012 H   0  0  0  0  0  0  0  0  0  0  0  0
   -3.0483   -1.8023   -0.1414 H   0  0  0  0  0  0  0  0  0  0  0  0
   -2.0453   -0.9914    1.0993 H   0  0  0  0  0  0  0  0  0  0  0  0
   -0.9360   -2.7815   -1.1137 H   0  0  0  0  0  0  0  0  0  0  0  0
   -1.4759   -3.3961    1.8649 H   0  0  0  0  0  0  0  0  0  0  0  0
   -0.2273   -5.2138   -0.2645 H   0  0  0  0  0  0  0  0  0  0  0  0
    1.1296   -3.8434    2.1243 H   0  0  0  0  0  0  0  0  0  0  0  0
    1.4190   -3.2210   -0.8858 H   0  0  0  0  0  0  0  0  0  0  0  0
    4.3232   -1.5014   -0.0546 H   0  0  0  0  0  0  0  0  0  0  0  0
    3.3457   -2.2150   -1.3317 H   0  0  0  0  0  0  0  0  0  0  0  0
    3.4313    0.2430   -1.4602 H   0  0  0  0  0  0  0  0  0  0  0  0
    1.6702    2.2525   -0.9007 H   0  0  0  0  0  0  0  0  0  0  0  0
    3.2287    1.3092    3.7187 H   0  0  0  0  0  0  0  0  0  0  0  0
    3.4935   -0.4017    1.9765 H   0  0  0  0  0  0  0  0  0  0  0  0
    1.7333    4.4236    2.9372 H   0  0  0  0  0  0  0  0  0  0  0  0
    0.8402    4.1493   -0.0226 H   0  0  0  0  0  0  0  0  0  0  0  0
    0.8134   -0.5307   -0.7542 H   0  0  0  0  0  0  0  0  0  0  0  0
    2.9708   -4.6529    1.0411 H   0  0  0  0  0  0  0  0  0  0  0  0
    0.2711   -6.3675    1.6765 H   0  0  0  0  0  0  0  0  0  0  0  0
   -2.6393   -5.1466    0.8847 H   0  0  0  0  0  0  0  0  0  0  0  0
   -4.0182    3.0918    0.7235 H   0  0  0  0  0  0  0  0  0  0  0  0
   -1.1135    4.0498    1.2085 H   0  0  0  0  0  0  0  0  0  0  0  0
   -0.4731    4.6064   -1.9801 H   0  0  0  0  0  0  0  0  0  0  0  0
  1  2  1  0
  2  3  1  0
  3  4  1  0
  4  5  1  0
  5  6  1  0
  6  7  1  0
  6  8  1  0
  8  9  1  0
  9 10  1  0
 10 11  1  0
 11 12  1  0
 12 13  1  0
 13 14  1  0
 14 15  1  0
 14 16  1  0
 16 17  1  0
 17 18  1  0
 18 19  1  0
 19 20  2  0
 20 21  1  0
 21 22  2  0
 22 23  1  0
 23 24  2  0
 22 25  1  0
 21 26  1  0
 18 27  1  0
 13 28  1  0
 12 29  1  0
 11 30  1  0
  5 31  1  0
  4 32  1  0
  3 33  1  0
  7  2  1  0
 15 10  1  0
 24 19  1  0
  1 34  1  0
  1 35  1  0
  1 36  1  0
  2 37  1  1
  3 38  1  6
  4 39  1  1
  5 40  1  1
  6 41  1  6
  9 42  1  0
  9 43  1  0
 10 44  1  6
 11 45  1  1
 12 46  1  6
 13 47  1  1
 14 48  1  6
 17 49  1  0
 17 50  1  0
 18 51  1  0
 20 52  1  0
 23 53  1  0
 24 54  1  0
 25 55  1  0
 26 56  1  0
 27 57  1  0
 28 58  1  0
 29 59  1  0
 30 60  1  0
 31 61  1  0
 32 62  1  0
 33 63  1  0
M  END
>  <PubChem_ID>  (1) 
5317383

>  <Organism>  (1) 
Forsythia suspensa

>  <NDD_prob>  (1) 
0.95916

$$$$
